/*---------------------------------------------------------------------------*\
  =========                 |
  \\      /  F ield         | OpenFOAM: The Open Source CFD Toolbox
   \\    /   O peration     | Website:  https://openfoam.org
    \\  /    A nd           | Version:  7
     \\/     M anipulation  |
\*---------------------------------------------------------------------------*/
Build  : 7-63349425784a
Exec   : reactingFoam -parallel -fileHandler collated
Date   : Nov 06 2025
Time   : 14:06:38
Host   : "zhouyuchen-virtual-machine"
PID    : 120879
I/O    : collated (maxThreadFileBufferSize 2e+09)
         Threading activated since maxThreadFileBufferSize > 0.
         Requires large enough buffer to collect all data or thread support 
         enabled in MPI. If thread support cannot be enabled, deactivate
         threading by setting maxThreadFileBufferSize to 0 in
         $FOAM_ETC/controlDict
Case   : /home/zhouyuchen/Desktop/pureChemistryModel/Sandia
nProcs : 6
Slaves : 
5
(
"zhouyuchen-virtual-machine.120880"
"zhouyuchen-virtual-machine.120881"
"zhouyuchen-virtual-machine.120882"
"zhouyuchen-virtual-machine.120883"
"zhouyuchen-virtual-machine.120884"
)

Pstream initialized with:
    floatTransfer      : 0
    nProcsSimpleSum    : 0
    commsType          : nonBlocking
    polling iterations : 0
sigFpe : Enabling floating point exception trapping (FOAM_SIGFPE).
fileModificationChecking : Monitoring run-time modified files using timeStamp (fileModificationSkew 10)
allowSystemOperations : Allowing user-supplied system call operations

// * * * * * * * * * * * * * * * * * * * * * * * * * * * * * * * * * * * * * //
Create time

Create mesh for time = 0


PIMPLE: No convergence criteria found


PIMPLE: Operating solver in transient mode with 1 outer corrector
PIMPLE: Operating solver in PISO mode


Reading thermophysical properties

Selecting thermodynamics package 
{
    type            hePsiThermo;
    mixture         reactingMixture;
    transport       sutherland;
    thermo          janaf;
    energy          sensibleEnthalpy;
    equationOfState perfectGas;
    specie          specie;
}

Selecting chemistryReader foamChemistryReader
Reading field U

Reading/calculating face flux field phi

Creating turbulence model.

Selecting turbulence model type RAS
Selecting RAS turbulence model kEpsilon
RAS
{
    RASModel        kEpsilon;
    turbulence      on;
    printCoeffs     on;
    Cmu             0.09;
    C1              1.44;
    C2              1.92;
    C3              0;
    sigmak          1;
    sigmaEps        1.3;
}

Creating reaction model

Selecting combustion model laminar
Selecting chemistry solver 
{
    solver          ode;
    method          standard;
}

StandardChemistryModel: Number of species = 36 and reactions = 219
Selecting ODE solver seulex
    using integrated reaction rate
Creating field dpdt

Creating field kinetic energy K

No MRF models present

No finite volume options present
Courant Number mean: 0.0001840568067 max: 0.01286827065

Starting time loop

Courant Number mean: 0.0001840568067 max: 0.01286827065
deltaT = 1.199961601e-06
Time = 1.199961601e-06

diagonal:  Solving for rho, Initial residual = 0, Final residual = 0, No Iterations 0
DILUPBiCGStab:  Solving for Ux, Initial residual = 9.820729654e-07, Final residual = 9.820729654e-07, No Iterations 0
DILUPBiCGStab:  Solving for Uy, Initial residual = 3.90652589e-05, Final residual = 1.012554792e-09, No Iterations 1
DILUPBiCGStab:  Solving for Uz, Initial residual = 2.45008559e-08, Final residual = 2.45008559e-08, No Iterations 0
DILUPBiCGStab:  Solving for H2, Initial residual = 4.716825989e-05, Final residual = 1.370045401e-09, No Iterations 1
DILUPBiCGStab:  Solving for H, Initial residual = 0.01229402791, Final residual = 1.72291345e-06, No Iterations 1
DILUPBiCGStab:  Solving for O, Initial residual = 0.0002108800683, Final residual = 8.915996682e-09, No Iterations 1
DILUPBiCGStab:  Solving for O2, Initial residual = 3.575884368e-05, Final residual = 5.069199486e-09, No Iterations 1
DILUPBiCGStab:  Solving for OH, Initial residual = 0.0006338896645, Final residual = 4.39803975e-08, No Iterations 1
DILUPBiCGStab:  Solving for H2O, Initial residual = 1.350026797e-05, Final residual = 8.002661229e-10, No Iterations 1
DILUPBiCGStab:  Solving for HO2, Initial residual = 1, Final residual = 0.0001418923903, No Iterations 1
DILUPBiCGStab:  Solving for H2O2, Initial residual = 1, Final residual = 0.0001145700688, No Iterations 1
DILUPBiCGStab:  Solving for C, Initial residual = 0.9999999994, Final residual = 6.924720272e-06, No Iterations 1
DILUPBiCGStab:  Solving for CH, Initial residual = 1, Final residual = 8.617912751e-06, No Iterations 1
DILUPBiCGStab:  Solving for CH2, Initial residual = 1, Final residual = 3.919896468e-05, No Iterations 1
DILUPBiCGStab:  Solving for CH2(S), Initial residual = 1, Final residual = 3.529957837e-05, No Iterations 1
DILUPBiCGStab:  Solving for CH3, Initial residual = 1, Final residual = 5.303148725e-05, No Iterations 1
DILUPBiCGStab:  Solving for CH4, Initial residual = 1.609239967e-06, Final residual = 8.052964251e-11, No Iterations 1
DILUPBiCGStab:  Solving for CO, Initial residual = 2.73811661e-05, Final residual = 9.624679758e-10, No Iterations 1
DILUPBiCGStab:  Solving for CO2, Initial residual = 5.345820352e-07, Final residual = 1.812160942e-11, No Iterations 1
DILUPBiCGStab:  Solving for HCO, Initial residual = 1, Final residual = 1.400771885e-05, No Iterations 1
DILUPBiCGStab:  Solving for CH2O, Initial residual = 1, Final residual = 3.763502311e-05, No Iterations 1
DILUPBiCGStab:  Solving for CH2OH, Initial residual = 1, Final residual = 1.542752184e-05, No Iterations 1
DILUPBiCGStab:  Solving for CH3O, Initial residual = 1, Final residual = 5.89719466e-05, No Iterations 1
DILUPBiCGStab:  Solving for CH3OH, Initial residual = 1, Final residual = 6.657779852e-05, No Iterations 1
DILUPBiCGStab:  Solving for C2H, Initial residual = 0.9999999756, Final residual = 7.23085832e-06, No Iterations 1
DILUPBiCGStab:  Solving for C2H2, Initial residual = 1, Final residual = 1.034721046e-05, No Iterations 1
DILUPBiCGStab:  Solving for C2H3, Initial residual = 1, Final residual = 1.069621714e-05, No Iterations 1
DILUPBiCGStab:  Solving for C2H4, Initial residual = 1, Final residual = 1.765687137e-05, No Iterations 1
DILUPBiCGStab:  Solving for C2H5, Initial residual = 1, Final residual = 1.546221413e-05, No Iterations 1
DILUPBiCGStab:  Solving for C2H6, Initial residual = 1, Final residual = 2.510822319e-05, No Iterations 1
DILUPBiCGStab:  Solving for HCCO, Initial residual = 0.9999999997, Final residual = 9.465338332e-06, No Iterations 1
DILUPBiCGStab:  Solving for CH2CO, Initial residual = 1, Final residual = 1.403975913e-05, No Iterations 1
DILUPBiCGStab:  Solving for HCCOH, Initial residual = 0.9999999876, Final residual = 7.675754386e-06, No Iterations 1
DILUPBiCGStab:  Solving for AR, Initial residual = 0, Final residual = 0, No Iterations 0
DILUPBiCGStab:  Solving for C3H7, Initial residual = 0.9999999988, Final residual = 1.537162129e-05, No Iterations 1
DILUPBiCGStab:  Solving for C3H8, Initial residual = 1, Final residual = 1.781396195e-05, No Iterations 1
DILUPBiCGStab:  Solving for CH2CHO, Initial residual = 1, Final residual = 1.542507199e-05, No Iterations 1
DILUPBiCGStab:  Solving for CH3CHO, Initial residual = 1, Final residual = 1.418727824e-05, No Iterations 1
DILUPBiCGStab:  Solving for h, Initial residual = 4.052994099e-05, Final residual = 4.907690042e-09, No Iterations 1
min/max(T) = 290.9998814, 1880.202791
DICPCG:  Solving for p, Initial residual = 0.08398998833, Final residual = 0.0001865168751, No Iterations 1
diagonal:  Solving for rho, Initial residual = 0, Final residual = 0, No Iterations 0
time step continuity errors : sum local = 3.063305989e-08, global = -3.901550669e-10, cumulative = -3.901550669e-10
DICPCG:  Solving for p, Initial residual = 0.02861962777, Final residual = 1.982072027e-08, No Iterations 3
diagonal:  Solving for rho, Initial residual = 0, Final residual = 0, No Iterations 0
time step continuity errors : sum local = 5.731900689e-12, global = -4.722672576e-12, cumulative = -3.948777395e-10
DILUPBiCGStab:  Solving for epsilon, Initial residual = 3.040997376e-07, Final residual = 3.040997376e-07, No Iterations 0
DILUPBiCGStab:  Solving for k, Initial residual = 1.258559035e-07, Final residual = 1.258559035e-07, No Iterations 0
ExecutionTime = 1.08 s  ClockTime = 1 s

Courant Number mean: 0.0002207803466 max: 0.01455688053
deltaT = 1.439940098e-06
Time = 2.639901699e-06

diagonal:  Solving for rho, Initial residual = 0, Final residual = 0, No Iterations 0
DILUPBiCGStab:  Solving for Ux, Initial residual = 0.0003404636263, Final residual = 1.109809055e-08, No Iterations 1
DILUPBiCGStab:  Solving for Uy, Initial residual = 3.962494907e-05, Final residual = 5.97314172e-10, No Iterations 1
DILUPBiCGStab:  Solving for Uz, Initial residual = 4.151880008e-07, Final residual = 4.151880008e-07, No Iterations 0
DILUPBiCGStab:  Solving for H2, Initial residual = 4.713286324e-05, Final residual = 7.676314868e-10, No Iterations 1
DILUPBiCGStab:  Solving for H, Initial residual = 0.008396063572, Final residual = 7.068353449e-07, No Iterations 1
DILUPBiCGStab:  Solving for O, Initial residual = 0.0001826297079, Final residual = 4.706313986e-09, No Iterations 1
DILUPBiCGStab:  Solving for O2, Initial residual = 1.963981571e-05, Final residual = 1.672949406e-09, No Iterations 1
DILUPBiCGStab:  Solving for OH, Initial residual = 0.0006291809853, Final residual = 2.905841528e-08, No Iterations 1
DILUPBiCGStab:  Solving for H2O, Initial residual = 1.245972885e-05, Final residual = 4.609681309e-10, No Iterations 1
DILUPBiCGStab:  Solving for HO2, Initial residual = 0.03194575635, Final residual = 2.756709596e-06, No Iterations 1
DILUPBiCGStab:  Solving for H2O2, Initial residual = 0.03599525175, Final residual = 2.479097626e-06, No Iterations 1
DILUPBiCGStab:  Solving for C, Initial residual = 0.001079684939, Final residual = 1.660065528e-09, No Iterations 1
DILUPBiCGStab:  Solving for CH, Initial residual = 0.001047299583, Final residual = 2.169763633e-09, No Iterations 1
DILUPBiCGStab:  Solving for CH2, Initial residual = 0.002074634382, Final residual = 5.27230959e-08, No Iterations 1
DILUPBiCGStab:  Solving for CH2(S), Initial residual = 0.001851839594, Final residual = 4.168983907e-08, No Iterations 1
DILUPBiCGStab:  Solving for CH3, Initial residual = 0.004049355019, Final residual = 1.301729724e-07, No Iterations 1
DILUPBiCGStab:  Solving for CH4, Initial residual = 1.356404327e-06, Final residual = 4.026134799e-11, No Iterations 1
DILUPBiCGStab:  Solving for CO, Initial residual = 3.061460809e-05, Final residual = 6.431650033e-10, No Iterations 1
DILUPBiCGStab:  Solving for CO2, Initial residual = 5.689451359e-07, Final residual = 1.120662467e-11, No Iterations 1
DILUPBiCGStab:  Solving for HCO, Initial residual = 0.001712934778, Final residual = 1.013546872e-08, No Iterations 1
DILUPBiCGStab:  Solving for CH2O, Initial residual = 0.004273315338, Final residual = 1.00480855e-07, No Iterations 1
DILUPBiCGStab:  Solving for CH2OH, Initial residual = 0.001432388865, Final residual = 1.281739611e-08, No Iterations 1
DILUPBiCGStab:  Solving for CH3O, Initial residual = 0.008237866552, Final residual = 2.65092928e-07, No Iterations 1
DILUPBiCGStab:  Solving for CH3OH, Initial residual = 0.00750906081, Final residual = 3.355145085e-07, No Iterations 1
DILUPBiCGStab:  Solving for C2H, Initial residual = 0.003113678219, Final residual = 5.125600653e-09, No Iterations 1
DILUPBiCGStab:  Solving for C2H2, Initial residual = 0.003534948397, Final residual = 1.158147632e-08, No Iterations 1
DILUPBiCGStab:  Solving for C2H3, Initial residual = 0.002070402863, Final residual = 6.808235401e-09, No Iterations 1
DILUPBiCGStab:  Solving for C2H4, Initial residual = 0.002759330809, Final residual = 1.704851755e-08, No Iterations 1
DILUPBiCGStab:  Solving for C2H5, Initial residual = 0.002941544998, Final residual = 1.703704779e-08, No Iterations 1
DILUPBiCGStab:  Solving for C2H6, Initial residual = 0.003683959009, Final residual = 3.996528193e-08, No Iterations 1
DILUPBiCGStab:  Solving for HCCO, Initial residual = 0.00428865638, Final residual = 1.036282373e-08, No Iterations 1
DILUPBiCGStab:  Solving for CH2CO, Initial residual = 0.004715144164, Final residual = 2.019474026e-08, No Iterations 1
DILUPBiCGStab:  Solving for HCCOH, Initial residual = 0.006882584708, Final residual = 1.339726986e-08, No Iterations 1
DILUPBiCGStab:  Solving for AR, Initial residual = 0, Final residual = 0, No Iterations 0
DILUPBiCGStab:  Solving for C3H7, Initial residual = 0.005471596391, Final residual = 2.990906414e-08, No Iterations 1
DILUPBiCGStab:  Solving for C3H8, Initial residual = 0.006984372601, Final residual = 4.439877781e-08, No Iterations 1
DILUPBiCGStab:  Solving for CH2CHO, Initial residual = 0.002795234327, Final residual = 1.487485163e-08, No Iterations 1
DILUPBiCGStab:  Solving for CH3CHO, Initial residual = 0.005045610948, Final residual = 2.625172594e-08, No Iterations 1
DILUPBiCGStab:  Solving for h, Initial residual = 2.938756759e-05, Final residual = 1.970540127e-09, No Iterations 1
min/max(T) = 290.9998783, 1880.398559
DICPCG:  Solving for p, Initial residual = 0.01706471652, Final residual = 1.058272366e-05, No Iterations 1
diagonal:  Solving for rho, Initial residual = 0, Final residual = 0, No Iterations 0
time step continuity errors : sum local = 3.074561078e-09, global = 5.055139835e-10, cumulative = 1.10636244e-10
DICPCG:  Solving for p, Initial residual = 0.008374735461, Final residual = 5.486401983e-08, No Iterations 2
diagonal:  Solving for rho, Initial residual = 0, Final residual = 0, No Iterations 0
time step continuity errors : sum local = 1.948867576e-11, global = 8.535880546e-13, cumulative = 1.11489832e-10
DILUPBiCGStab:  Solving for epsilon, Initial residual = 1.893719769e-07, Final residual = 1.893719769e-07, No Iterations 0
DILUPBiCGStab:  Solving for k, Initial residual = 8.026475238e-08, Final residual = 8.026475238e-08, No Iterations 0
ExecutionTime = 1.61 s  ClockTime = 1 s

Courant Number mean: 0.0002649318178 max: 0.01745339919
deltaT = 1.727888304e-06
Time = 4.367790003e-06

diagonal:  Solving for rho, Initial residual = 0, Final residual = 0, No Iterations 0
DILUPBiCGStab:  Solving for Ux, Initial residual = 0.0005421272444, Final residual = 2.028557528e-08, No Iterations 1
DILUPBiCGStab:  Solving for Uy, Initial residual = 4.179649262e-05, Final residual = 7.69432212e-10, No Iterations 1
DILUPBiCGStab:  Solving for Uz, Initial residual = 6.486499546e-07, Final residual = 6.486499546e-07, No Iterations 0
DILUPBiCGStab:  Solving for H2, Initial residual = 4.466701382e-05, Final residual = 1.213867919e-09, No Iterations 1
DILUPBiCGStab:  Solving for H, Initial residual = 0.002355362715, Final residual = 2.212828044e-07, No Iterations 1
DILUPBiCGStab:  Solving for O, Initial residual = 0.0001445167085, Final residual = 7.052448188e-09, No Iterations 1
DILUPBiCGStab:  Solving for O2, Initial residual = 3.925742172e-06, Final residual = 2.477610751e-10, No Iterations 1
DILUPBiCGStab:  Solving for OH, Initial residual = 0.0005800886116, Final residual = 4.47067791e-08, No Iterations 1
DILUPBiCGStab:  Solving for H2O, Initial residual = 1.079398113e-05, Final residual = 6.767079331e-10, No Iterations 1
DILUPBiCGStab:  Solving for HO2, Initial residual = 0.003915595669, Final residual = 3.227315057e-07, No Iterations 1
DILUPBiCGStab:  Solving for H2O2, Initial residual = 0.01817359057, Final residual = 1.495793992e-06, No Iterations 1
DILUPBiCGStab:  Solving for C, Initial residual = 0.000428049164, Final residual = 2.32102273e-09, No Iterations 1
DILUPBiCGStab:  Solving for CH, Initial residual = 0.0006512265043, Final residual = 3.71139912e-09, No Iterations 1
DILUPBiCGStab:  Solving for CH2, Initial residual = 0.001178516412, Final residual = 2.046676769e-08, No Iterations 1
DILUPBiCGStab:  Solving for CH2(S), Initial residual = 0.001140860584, Final residual = 1.651249991e-08, No Iterations 1
DILUPBiCGStab:  Solving for CH3, Initial residual = 0.001112736422, Final residual = 5.455313064e-08, No Iterations 1
DILUPBiCGStab:  Solving for CH4, Initial residual = 9.452749259e-07, Final residual = 5.160438955e-11, No Iterations 1
DILUPBiCGStab:  Solving for CO, Initial residual = 3.412452549e-05, Final residual = 1.19114621e-09, No Iterations 1
DILUPBiCGStab:  Solving for CO2, Initial residual = 5.968778113e-07, Final residual = 1.749772413e-11, No Iterations 1
DILUPBiCGStab:  Solving for HCO, Initial residual = 0.0006456846258, Final residual = 7.679531089e-09, No Iterations 1
DILUPBiCGStab:  Solving for CH2O, Initial residual = 0.002320896187, Final residual = 9.855621427e-08, No Iterations 1
DILUPBiCGStab:  Solving for CH2OH, Initial residual = 0.0006804051478, Final residual = 1.192696949e-08, No Iterations 1
DILUPBiCGStab:  Solving for CH3O, Initial residual = 0.005783458183, Final residual = 2.413730883e-07, No Iterations 1
DILUPBiCGStab:  Solving for CH3OH, Initial residual = 0.004750061598, Final residual = 3.624657854e-07, No Iterations 1
DILUPBiCGStab:  Solving for C2H, Initial residual = 0.001802234225, Final residual = 2.699129809e-09, No Iterations 1
DILUPBiCGStab:  Solving for C2H2, Initial residual = 0.001888236453, Final residual = 8.404195615e-09, No Iterations 1
DILUPBiCGStab:  Solving for C2H3, Initial residual = 0.0006892873988, Final residual = 3.090644909e-09, No Iterations 1
DILUPBiCGStab:  Solving for C2H4, Initial residual = 0.001116222128, Final residual = 8.850551694e-09, No Iterations 1
DILUPBiCGStab:  Solving for C2H5, Initial residual = 0.001214062862, Final residual = 1.014866718e-08, No Iterations 1
DILUPBiCGStab:  Solving for C2H6, Initial residual = 0.002235878799, Final residual = 3.809020549e-08, No Iterations 1
DILUPBiCGStab:  Solving for HCCO, Initial residual = 0.002367851425, Final residual = 6.462637017e-09, No Iterations 1
DILUPBiCGStab:  Solving for CH2CO, Initial residual = 0.002424339807, Final residual = 1.323936981e-08, No Iterations 1
DILUPBiCGStab:  Solving for HCCOH, Initial residual = 0.003650850187, Final residual = 8.255470177e-09, No Iterations 1
DILUPBiCGStab:  Solving for AR, Initial residual = 0, Final residual = 0, No Iterations 0
DILUPBiCGStab:  Solving for C3H7, Initial residual = 0.002327049794, Final residual = 1.631614385e-08, No Iterations 1
DILUPBiCGStab:  Solving for C3H8, Initial residual = 0.003987257653, Final residual = 3.484066767e-08, No Iterations 1
DILUPBiCGStab:  Solving for CH2CHO, Initial residual = 0.0008593425282, Final residual = 5.918702904e-09, No Iterations 1
DILUPBiCGStab:  Solving for CH3CHO, Initial residual = 0.002170470002, Final residual = 1.641183795e-08, No Iterations 1
DILUPBiCGStab:  Solving for h, Initial residual = 1.02799443e-05, Final residual = 5.814786793e-10, No Iterations 1
min/max(T) = 290.9998738, 1880.587414
DICPCG:  Solving for p, Initial residual = 0.003947182345, Final residual = 4.459652635e-06, No Iterations 1
diagonal:  Solving for rho, Initial residual = 0, Final residual = 0, No Iterations 0
time step continuity errors : sum local = 1.59608838e-09, global = -5.265829446e-10, cumulative = -4.150931125e-10
DICPCG:  Solving for p, Initial residual = 0.002224372642, Final residual = 3.046110527e-08, No Iterations 2
diagonal:  Solving for rho, Initial residual = 0, Final residual = 0, No Iterations 0
time step continuity errors : sum local = 1.161027075e-11, global = 1.944215243e-12, cumulative = -4.131488973e-10
DILUPBiCGStab:  Solving for epsilon, Initial residual = 2.604118627e-07, Final residual = 2.604118627e-07, No Iterations 0
DILUPBiCGStab:  Solving for k, Initial residual = 1.147603279e-07, Final residual = 1.147603279e-07, No Iterations 0
ExecutionTime = 1.92 s  ClockTime = 2 s

Courant Number mean: 0.0003178717438 max: 0.02090890404
deltaT = 2.073465965e-06
Time = 6.441255969e-06

diagonal:  Solving for rho, Initial residual = 0, Final residual = 0, No Iterations 0
DILUPBiCGStab:  Solving for Ux, Initial residual = 0.0006899881735, Final residual = 3.006973744e-08, No Iterations 1
DILUPBiCGStab:  Solving for Uy, Initial residual = 5.198442283e-05, Final residual = 1.145832151e-09, No Iterations 1
DILUPBiCGStab:  Solving for Uz, Initial residual = 8.106411451e-07, Final residual = 8.106411451e-07, No Iterations 0
DILUPBiCGStab:  Solving for H2, Initial residual = 4.64889714e-05, Final residual = 1.849278821e-09, No Iterations 1
DILUPBiCGStab:  Solving for H, Initial residual = 0.001673244706, Final residual = 1.814697262e-07, No Iterations 1
DILUPBiCGStab:  Solving for O, Initial residual = 0.0001684818994, Final residual = 1.172531533e-08, No Iterations 1
DILUPBiCGStab:  Solving for O2, Initial residual = 1.786129357e-06, Final residual = 6.533384509e-11, No Iterations 1
DILUPBiCGStab:  Solving for OH, Initial residual = 0.000687080283, Final residual = 6.728983014e-08, No Iterations 1
DILUPBiCGStab:  Solving for H2O, Initial residual = 1.243590398e-05, Final residual = 1.028213753e-09, No Iterations 1
DILUPBiCGStab:  Solving for HO2, Initial residual = 0.00177853464, Final residual = 1.258036987e-07, No Iterations 1
DILUPBiCGStab:  Solving for H2O2, Initial residual = 0.01552986731, Final residual = 1.527078087e-06, No Iterations 1
DILUPBiCGStab:  Solving for C, Initial residual = 0.0004635004802, Final residual = 2.777614164e-09, No Iterations 1
DILUPBiCGStab:  Solving for CH, Initial residual = 0.0006940446157, Final residual = 4.908431677e-09, No Iterations 1
DILUPBiCGStab:  Solving for CH2, Initial residual = 0.001314696091, Final residual = 2.987050085e-08, No Iterations 1
DILUPBiCGStab:  Solving for CH2(S), Initial residual = 0.001270868495, Final residual = 2.563764688e-08, No Iterations 1
DILUPBiCGStab:  Solving for CH3, Initial residual = 0.001063443217, Final residual = 6.106352208e-08, No Iterations 1
DILUPBiCGStab:  Solving for CH4, Initial residual = 1.039192185e-06, Final residual = 7.731172746e-11, No Iterations 1
DILUPBiCGStab:  Solving for CO, Initial residual = 3.896986614e-05, Final residual = 1.872524256e-09, No Iterations 1
DILUPBiCGStab:  Solving for CO2, Initial residual = 7.044902281e-07, Final residual = 2.612551278e-11, No Iterations 1
DILUPBiCGStab:  Solving for HCO, Initial residual = 0.0005669705026, Final residual = 1.060648659e-08, No Iterations 1
DILUPBiCGStab:  Solving for CH2O, Initial residual = 0.001984489381, Final residual = 1.246268163e-07, No Iterations 1
DILUPBiCGStab:  Solving for CH2OH, Initial residual = 0.0007950773582, Final residual = 1.856943444e-08, No Iterations 1
DILUPBiCGStab:  Solving for CH3O, Initial residual = 0.003992851673, Final residual = 2.178698392e-07, No Iterations 1
DILUPBiCGStab:  Solving for CH3OH, Initial residual = 0.003930767335, Final residual = 4.172694782e-07, No Iterations 1
DILUPBiCGStab:  Solving for C2H, Initial residual = 0.001199105311, Final residual = 3.066663454e-09, No Iterations 1
DILUPBiCGStab:  Solving for C2H2, Initial residual = 0.001165680099, Final residual = 7.827866208e-09, No Iterations 1
DILUPBiCGStab:  Solving for C2H3, Initial residual = 0.0003886879156, Final residual = 2.451861626e-09, No Iterations 1
DILUPBiCGStab:  Solving for C2H4, Initial residual = 0.0007839296255, Final residual = 9.063550713e-09, No Iterations 1
DILUPBiCGStab:  Solving for C2H5, Initial residual = 0.000617640387, Final residual = 7.848906006e-09, No Iterations 1
DILUPBiCGStab:  Solving for C2H6, Initial residual = 0.001544315521, Final residual = 3.870392543e-08, No Iterations 1
DILUPBiCGStab:  Solving for HCCO, Initial residual = 0.001401723305, Final residual = 4.758969943e-09, No Iterations 1
DILUPBiCGStab:  Solving for CH2CO, Initial residual = 0.001404903656, Final residual = 1.085115332e-08, No Iterations 1
DILUPBiCGStab:  Solving for HCCOH, Initial residual = 0.002069683486, Final residual = 6.158655697e-09, No Iterations 1
DILUPBiCGStab:  Solving for AR, Initial residual = 0, Final residual = 0, No Iterations 0
DILUPBiCGStab:  Solving for C3H7, Initial residual = 0.0009507504828, Final residual = 9.097397763e-09, No Iterations 1
DILUPBiCGStab:  Solving for C3H8, Initial residual = 0.002187399002, Final residual = 2.715601973e-08, No Iterations 1
DILUPBiCGStab:  Solving for CH2CHO, Initial residual = 0.0006170850582, Final residual = 6.974719303e-09, No Iterations 1
DILUPBiCGStab:  Solving for CH3CHO, Initial residual = 0.001068239348, Final residual = 1.249340472e-08, No Iterations 1
DILUPBiCGStab:  Solving for h, Initial residual = 1.341641397e-05, Final residual = 1.093114601e-09, No Iterations 1
min/max(T) = 290.9998701, 1880.806036
DICPCG:  Solving for p, Initial residual = 0.01205149886, Final residual = 1.557960307e-05, No Iterations 1
diagonal:  Solving for rho, Initial residual = 0, Final residual = 0, No Iterations 0
time step continuity errors : sum local = 5.897647349e-09, global = 5.041675851e-10, cumulative = 9.101868783e-11
DICPCG:  Solving for p, Initial residual = 0.00630844341, Final residual = 1.799929802e-07, No Iterations 2
diagonal:  Solving for rho, Initial residual = 0, Final residual = 0, No Iterations 0
time step continuity errors : sum local = 7.810510835e-11, global = 4.932667393e-12, cumulative = 9.595135523e-11
DILUPBiCGStab:  Solving for epsilon, Initial residual = 4.084066016e-07, Final residual = 4.084066016e-07, No Iterations 0
DILUPBiCGStab:  Solving for k, Initial residual = 1.82525871e-07, Final residual = 1.82525871e-07, No Iterations 0
ExecutionTime = 2.25 s  ClockTime = 2 s

Courant Number mean: 0.0003813875078 max: 0.02504413775
deltaT = 2.488159158e-06
Time = 8.929415127e-06

diagonal:  Solving for rho, Initial residual = 0, Final residual = 0, No Iterations 0
DILUPBiCGStab:  Solving for Ux, Initial residual = 0.001017815543, Final residual = 5.730349804e-08, No Iterations 1
DILUPBiCGStab:  Solving for Uy, Initial residual = 6.144743656e-05, Final residual = 1.637141783e-09, No Iterations 1
DILUPBiCGStab:  Solving for Uz, Initial residual = 1.198512097e-06, Final residual = 6.210703009e-11, No Iterations 1
DILUPBiCGStab:  Solving for H2, Initial residual = 4.773872487e-05, Final residual = 2.604063342e-09, No Iterations 1
DILUPBiCGStab:  Solving for H, Initial residual = 0.0007081200422, Final residual = 7.782703919e-08, No Iterations 1
DILUPBiCGStab:  Solving for O, Initial residual = 0.0001779668724, Final residual = 1.815583876e-08, No Iterations 1
DILUPBiCGStab:  Solving for O2, Initial residual = 1.761903849e-06, Final residual = 7.91412222e-11, No Iterations 1
DILUPBiCGStab:  Solving for OH, Initial residual = 0.0007451701487, Final residual = 9.082625553e-08, No Iterations 1
DILUPBiCGStab:  Solving for H2O, Initial residual = 1.30201516e-05, Final residual = 1.36555593e-09, No Iterations 1
DILUPBiCGStab:  Solving for HO2, Initial residual = 0.001847060624, Final residual = 1.608543707e-07, No Iterations 1
DILUPBiCGStab:  Solving for H2O2, Initial residual = 0.01297396511, Final residual = 1.528500202e-06, No Iterations 1
DILUPBiCGStab:  Solving for C, Initial residual = 0.0004564153529, Final residual = 2.028049057e-09, No Iterations 1
DILUPBiCGStab:  Solving for CH, Initial residual = 0.0005784624667, Final residual = 3.779577443e-09, No Iterations 1
DILUPBiCGStab:  Solving for CH2, Initial residual = 0.001190325909, Final residual = 4.89533256e-08, No Iterations 1
DILUPBiCGStab:  Solving for CH2(S), Initial residual = 0.001143679434, Final residual = 4.208507776e-08, No Iterations 1
DILUPBiCGStab:  Solving for CH3, Initial residual = 0.0009286305595, Final residual = 6.158242887e-08, No Iterations 1
DILUPBiCGStab:  Solving for CH4, Initial residual = 1.059050791e-06, Final residual = 1.08014968e-10, No Iterations 1
DILUPBiCGStab:  Solving for CO, Initial residual = 4.318450605e-05, Final residual = 2.70301079e-09, No Iterations 1
DILUPBiCGStab:  Solving for CO2, Initial residual = 8.354357448e-07, Final residual = 3.623327162e-11, No Iterations 1
DILUPBiCGStab:  Solving for HCO, Initial residual = 0.0004571696437, Final residual = 1.159585094e-08, No Iterations 1
DILUPBiCGStab:  Solving for CH2O, Initial residual = 0.001757872178, Final residual = 1.600180692e-07, No Iterations 1
DILUPBiCGStab:  Solving for CH2OH, Initial residual = 0.0007408533176, Final residual = 2.33331296e-08, No Iterations 1
DILUPBiCGStab:  Solving for CH3O, Initial residual = 0.002770057464, Final residual = 1.993119767e-07, No Iterations 1
DILUPBiCGStab:  Solving for CH3OH, Initial residual = 0.003405289642, Final residual = 4.729326423e-07, No Iterations 1
DILUPBiCGStab:  Solving for C2H, Initial residual = 0.0007545736187, Final residual = 2.592291999e-09, No Iterations 1
DILUPBiCGStab:  Solving for C2H2, Initial residual = 0.0008795330871, Final residual = 8.774879796e-09, No Iterations 1
DILUPBiCGStab:  Solving for C2H3, Initial residual = 0.0002163580283, Final residual = 1.803572669e-09, No Iterations 1
DILUPBiCGStab:  Solving for C2H4, Initial residual = 0.000634017967, Final residual = 1.038606568e-08, No Iterations 1
DILUPBiCGStab:  Solving for C2H5, Initial residual = 0.0003077736015, Final residual = 7.01527488e-09, No Iterations 1
DILUPBiCGStab:  Solving for C2H6, Initial residual = 0.001001484645, Final residual = 3.73598578e-08, No Iterations 1
DILUPBiCGStab:  Solving for HCCO, Initial residual = 0.001007932219, Final residual = 4.328272555e-09, No Iterations 1
DILUPBiCGStab:  Solving for CH2CO, Initial residual = 0.001059777763, Final residual = 1.115172546e-08, No Iterations 1
DILUPBiCGStab:  Solving for HCCOH, Initial residual = 0.001439646702, Final residual = 5.952990711e-09, No Iterations 1
DILUPBiCGStab:  Solving for AR, Initial residual = 0, Final residual = 0, No Iterations 0
DILUPBiCGStab:  Solving for C3H7, Initial residual = 0.00061648157, Final residual = 7.87636748e-09, No Iterations 1
DILUPBiCGStab:  Solving for C3H8, Initial residual = 0.001445218862, Final residual = 2.561904254e-08, No Iterations 1
DILUPBiCGStab:  Solving for CH2CHO, Initial residual = 0.0003804291999, Final residual = 6.259122718e-09, No Iterations 1
DILUPBiCGStab:  Solving for CH3CHO, Initial residual = 0.000904596217, Final residual = 1.684459326e-08, No Iterations 1
DILUPBiCGStab:  Solving for h, Initial residual = 1.568232118e-05, Final residual = 1.697932419e-09, No Iterations 1
min/max(T) = 290.9998645, 1881.062922
DICPCG:  Solving for p, Initial residual = 0.004519028852, Final residual = 6.242532176e-06, No Iterations 1
diagonal:  Solving for rho, Initial residual = 0, Final residual = 0, No Iterations 0
time step continuity errors : sum local = 2.714717579e-09, global = -2.064348718e-10, cumulative = -1.104835165e-10
DICPCG:  Solving for p, Initial residual = 0.002521491829, Final residual = 1.246070406e-07, No Iterations 2
diagonal:  Solving for rho, Initial residual = 0, Final residual = 0, No Iterations 0
time step continuity errors : sum local = 5.826356702e-11, global = 1.261495074e-11, cumulative = -9.786856579e-11
DILUPBiCGStab:  Solving for epsilon, Initial residual = 5.811389333e-07, Final residual = 5.811389333e-07, No Iterations 0
DILUPBiCGStab:  Solving for k, Initial residual = 2.674185337e-07, Final residual = 2.674185337e-07, No Iterations 0
ExecutionTime = 2.58 s  ClockTime = 2 s

Courant Number mean: 0.0004576689789 max: 0.03010726894
deltaT = 2.98579099e-06
Time = 1.191520612e-05

diagonal:  Solving for rho, Initial residual = 0, Final residual = 0, No Iterations 0
DILUPBiCGStab:  Solving for Ux, Initial residual = 0.001281598952, Final residual = 9.163665553e-08, No Iterations 1
DILUPBiCGStab:  Solving for Uy, Initial residual = 7.450327757e-05, Final residual = 2.312840783e-09, No Iterations 1
DILUPBiCGStab:  Solving for Uz, Initial residual = 1.506209623e-06, Final residual = 9.81884667e-11, No Iterations 1
DILUPBiCGStab:  Solving for H2, Initial residual = 5.041137597e-05, Final residual = 3.643309318e-09, No Iterations 1
DILUPBiCGStab:  Solving for H, Initial residual = 0.0001586716438, Final residual = 1.060833984e-08, No Iterations 1
DILUPBiCGStab:  Solving for O, Initial residual = 0.000192434748, Final residual = 2.769407147e-08, No Iterations 1
DILUPBiCGStab:  Solving for O2, Initial residual = 3.393959909e-06, Final residual = 3.485129755e-10, No Iterations 1
DILUPBiCGStab:  Solving for OH, Initial residual = 0.0008163217292, Final residual = 1.213716821e-07, No Iterations 1
DILUPBiCGStab:  Solving for H2O, Initial residual = 1.373963958e-05, Final residual = 1.788841848e-09, No Iterations 1
DILUPBiCGStab:  Solving for HO2, Initial residual = 0.003862241954, Final residual = 5.594764444e-07, No Iterations 1
DILUPBiCGStab:  Solving for H2O2, Initial residual = 0.01157951227, Final residual = 1.642711808e-06, No Iterations 1
DILUPBiCGStab:  Solving for C, Initial residual = 0.0004791273506, Final residual = 2.171399781e-09, No Iterations 1
DILUPBiCGStab:  Solving for CH, Initial residual = 0.0005410771388, Final residual = 3.533854261e-09, No Iterations 1
DILUPBiCGStab:  Solving for CH2, Initial residual = 0.001189517404, Final residual = 8.133086919e-08, No Iterations 1
DILUPBiCGStab:  Solving for CH2(S), Initial residual = 0.001131749212, Final residual = 6.891627703e-08, No Iterations 1
DILUPBiCGStab:  Solving for CH3, Initial residual = 0.0008645185166, Final residual = 6.832575278e-08, No Iterations 1
DILUPBiCGStab:  Solving for CH4, Initial residual = 1.102572429e-06, Final residual = 1.497921428e-10, No Iterations 1
DILUPBiCGStab:  Solving for CO, Initial residual = 4.796562584e-05, Final residual = 3.839580559e-09, No Iterations 1
DILUPBiCGStab:  Solving for CO2, Initial residual = 1.00642476e-06, Final residual = 5.041890202e-11, No Iterations 1
DILUPBiCGStab:  Solving for HCO, Initial residual = 0.0005204333493, Final residual = 1.408688981e-08, No Iterations 1
DILUPBiCGStab:  Solving for CH2O, Initial residual = 0.001700372422, Final residual = 2.096684045e-07, No Iterations 1
DILUPBiCGStab:  Solving for CH2OH, Initial residual = 0.0007810677901, Final residual = 2.861991128e-08, No Iterations 1
DILUPBiCGStab:  Solving for CH3O, Initial residual = 0.00218700863, Final residual = 2.05625774e-07, No Iterations 1
DILUPBiCGStab:  Solving for CH3OH, Initial residual = 0.003155811835, Final residual = 5.416856678e-07, No Iterations 1
DILUPBiCGStab:  Solving for C2H, Initial residual = 0.0004754047361, Final residual = 3.048662448e-09, No Iterations 1
DILUPBiCGStab:  Solving for C2H2, Initial residual = 0.0006712246929, Final residual = 1.029518483e-08, No Iterations 1
DILUPBiCGStab:  Solving for C2H3, Initial residual = 0.000149395583, Final residual = 1.428441413e-09, No Iterations 1
DILUPBiCGStab:  Solving for C2H4, Initial residual = 0.0005447571399, Final residual = 1.22604416e-08, No Iterations 1
DILUPBiCGStab:  Solving for C2H5, Initial residual = 0.000250051657, Final residual = 8.449150882e-09, No Iterations 1
DILUPBiCGStab:  Solving for C2H6, Initial residual = 0.0007792792191, Final residual = 4.165932225e-08, No Iterations 1
DILUPBiCGStab:  Solving for HCCO, Initial residual = 0.0007108937436, Final residual = 4.859301323e-09, No Iterations 1
DILUPBiCGStab:  Solving for CH2CO, Initial residual = 0.0008096579738, Final residual = 1.206491342e-08, No Iterations 1
DILUPBiCGStab:  Solving for HCCOH, Initial residual = 0.000999189667, Final residual = 6.814403571e-09, No Iterations 1
DILUPBiCGStab:  Solving for AR, Initial residual = 0, Final residual = 0, No Iterations 0
DILUPBiCGStab:  Solving for C3H7, Initial residual = 0.000429399425, Final residual = 9.0572695e-09, No Iterations 1
DILUPBiCGStab:  Solving for C3H8, Initial residual = 0.001017476705, Final residual = 2.544303875e-08, No Iterations 1
DILUPBiCGStab:  Solving for CH2CHO, Initial residual = 0.0003129762733, Final residual = 7.205651321e-09, No Iterations 1
DILUPBiCGStab:  Solving for CH3CHO, Initial residual = 0.0006578468369, Final residual = 1.996285704e-08, No Iterations 1
DILUPBiCGStab:  Solving for h, Initial residual = 1.376814641e-05, Final residual = 1.791274854e-09, No Iterations 1
min/max(T) = 290.9998589, 1881.357482
DICPCG:  Solving for p, Initial residual = 0.006816313604, Final residual = 1.598042231e-05, No Iterations 1
diagonal:  Solving for rho, Initial residual = 0, Final residual = 0, No Iterations 0
time step continuity errors : sum local = 7.46091189e-09, global = 2.86257908e-10, cumulative = 1.883893422e-10
DICPCG:  Solving for p, Initial residual = 0.003760224122, Final residual = 4.220032316e-07, No Iterations 2
diagonal:  Solving for rho, Initial residual = 0, Final residual = 0, No Iterations 0
time step continuity errors : sum local = 2.142970737e-10, global = 1.722785772e-11, cumulative = 2.056171999e-10
DILUPBiCGStab:  Solving for epsilon, Initial residual = 7.927713318e-07, Final residual = 7.927713318e-07, No Iterations 0
DILUPBiCGStab:  Solving for k, Initial residual = 3.831613673e-07, Final residual = 3.831613673e-07, No Iterations 0
ExecutionTime = 2.91 s  ClockTime = 3 s

Courant Number mean: 0.0005492844701 max: 0.03660087293
deltaT = 3.582521117e-06
Time = 1.549772723e-05

diagonal:  Solving for rho, Initial residual = 0, Final residual = 0, No Iterations 0
DILUPBiCGStab:  Solving for Ux, Initial residual = 0.001666417482, Final residual = 1.542751138e-07, No Iterations 1
DILUPBiCGStab:  Solving for Uy, Initial residual = 8.805412464e-05, Final residual = 3.376980307e-09, No Iterations 1
DILUPBiCGStab:  Solving for Uz, Initial residual = 1.950930621e-06, Final residual = 1.699110961e-10, No Iterations 1
DILUPBiCGStab:  Solving for H2, Initial residual = 5.458767013e-05, Final residual = 5.10999728e-09, No Iterations 1
DILUPBiCGStab:  Solving for H, Initial residual = 9.211328528e-05, Final residual = 5.577213333e-09, No Iterations 1
DILUPBiCGStab:  Solving for O, Initial residual = 0.0002119442002, Final residual = 4.143083756e-08, No Iterations 1
DILUPBiCGStab:  Solving for O2, Initial residual = 3.319078769e-06, Final residual = 4.098803004e-10, No Iterations 1
DILUPBiCGStab:  Solving for OH, Initial residual = 0.0008870776187, Final residual = 1.589136669e-07, No Iterations 1
DILUPBiCGStab:  Solving for H2O, Initial residual = 1.453222415e-05, Final residual = 2.305450704e-09, No Iterations 1
DILUPBiCGStab:  Solving for HO2, Initial residual = 0.004047416802, Final residual = 7.279782347e-07, No Iterations 1
DILUPBiCGStab:  Solving for H2O2, Initial residual = 0.0105091714, Final residual = 1.806674558e-06, No Iterations 1
DILUPBiCGStab:  Solving for C, Initial residual = 0.0005000090602, Final residual = 3.015734636e-09, No Iterations 1
DILUPBiCGStab:  Solving for CH, Initial residual = 0.0005463979824, Final residual = 4.482409614e-09, No Iterations 1
DILUPBiCGStab:  Solving for CH2, Initial residual = 0.001277855831, Final residual = 1.285685913e-07, No Iterations 1
DILUPBiCGStab:  Solving for CH2(S), Initial residual = 0.001202099881, Final residual = 1.086908167e-07, No Iterations 1
DILUPBiCGStab:  Solving for CH3, Initial residual = 0.0008090243141, Final residual = 8.324915724e-08, No Iterations 1
DILUPBiCGStab:  Solving for CH4, Initial residual = 1.146614207e-06, Final residual = 1.976971738e-10, No Iterations 1
DILUPBiCGStab:  Solving for CO, Initial residual = 5.299001807e-05, Final residual = 5.327567623e-09, No Iterations 1
DILUPBiCGStab:  Solving for CO2, Initial residual = 1.216083337e-06, Final residual = 6.913433884e-11, No Iterations 1
DILUPBiCGStab:  Solving for HCO, Initial residual = 0.0005877726652, Final residual = 1.82990121e-08, No Iterations 1
DILUPBiCGStab:  Solving for CH2O, Initial residual = 0.001679790246, Final residual = 2.673579356e-07, No Iterations 1
DILUPBiCGStab:  Solving for CH2OH, Initial residual = 0.0008513583949, Final residual = 3.831979777e-08, No Iterations 1
DILUPBiCGStab:  Solving for CH3O, Initial residual = 0.001781681159, Final residual = 2.21597121e-07, No Iterations 1
DILUPBiCGStab:  Solving for CH3OH, Initial residual = 0.002993700702, Final residual = 6.09464904e-07, No Iterations 1
DILUPBiCGStab:  Solving for C2H, Initial residual = 0.0003854296212, Final residual = 3.846207717e-09, No Iterations 1
DILUPBiCGStab:  Solving for C2H2, Initial residual = 0.0005690914983, Final residual = 1.35042263e-08, No Iterations 1
DILUPBiCGStab:  Solving for C2H3, Initial residual = 7.481680113e-05, Final residual = 5.526855471e-10, No Iterations 1
DILUPBiCGStab:  Solving for C2H4, Initial residual = 0.000483091802, Final residual = 1.554025668e-08, No Iterations 1
DILUPBiCGStab:  Solving for C2H5, Initial residual = 0.0002970025101, Final residual = 1.363342315e-08, No Iterations 1
DILUPBiCGStab:  Solving for C2H6, Initial residual = 0.0006235053896, Final residual = 4.713325856e-08, No Iterations 1
DILUPBiCGStab:  Solving for HCCO, Initial residual = 0.0004804621894, Final residual = 5.766636783e-09, No Iterations 1
DILUPBiCGStab:  Solving for CH2CO, Initial residual = 0.0006490402665, Final residual = 1.483258875e-08, No Iterations 1
DILUPBiCGStab:  Solving for HCCOH, Initial residual = 0.0006750325503, Final residual = 8.45060842e-09, No Iterations 1
DILUPBiCGStab:  Solving for AR, Initial residual = 0, Final residual = 0, No Iterations 0
DILUPBiCGStab:  Solving for C3H7, Initial residual = 0.0002998838316, Final residual = 1.010886298e-08, No Iterations 1
DILUPBiCGStab:  Solving for C3H8, Initial residual = 0.000748922739, Final residual = 2.741950356e-08, No Iterations 1
DILUPBiCGStab:  Solving for CH2CHO, Initial residual = 0.0003103985039, Final residual = 9.620496734e-09, No Iterations 1
DILUPBiCGStab:  Solving for CH3CHO, Initial residual = 0.0005167379956, Final residual = 2.608760543e-08, No Iterations 1
DILUPBiCGStab:  Solving for h, Initial residual = 1.556897488e-05, Final residual = 2.521563004e-09, No Iterations 1
min/max(T) = 290.9998522, 1881.705398
DICPCG:  Solving for p, Initial residual = 0.006022091929, Final residual = 2.162191892e-05, No Iterations 1
diagonal:  Solving for rho, Initial residual = 0, Final residual = 0, No Iterations 0
time step continuity errors : sum local = 1.097478121e-08, global = -1.034044548e-09, cumulative = -8.284273482e-10
DICPCG:  Solving for p, Initial residual = 0.003386326939, Final residual = 7.261531789e-07, No Iterations 2
diagonal:  Solving for rho, Initial residual = 0, Final residual = 0, No Iterations 0
time step continuity errors : sum local = 3.931853653e-10, global = 1.138698262e-10, cumulative = -7.14557522e-10
DILUPBiCGStab:  Solving for epsilon, Initial residual = 1.046181842e-06, Final residual = 2.651143087e-11, No Iterations 1
DILUPBiCGStab:  Solving for k, Initial residual = 5.2947462e-07, Final residual = 5.2947462e-07, No Iterations 0
ExecutionTime = 3.31 s  ClockTime = 3 s

Courant Number mean: 0.0006592196632 max: 0.04458473177
deltaT = 4.298778781e-06
Time = 1.979650601e-05

diagonal:  Solving for rho, Initial residual = 0, Final residual = 0, No Iterations 0
DILUPBiCGStab:  Solving for Ux, Initial residual = 0.002058271676, Final residual = 2.494259119e-07, No Iterations 1
DILUPBiCGStab:  Solving for Uy, Initial residual = 0.0001057246222, Final residual = 4.858463286e-09, No Iterations 1
DILUPBiCGStab:  Solving for Uz, Initial residual = 2.449718281e-06, Final residual = 2.801171075e-10, No Iterations 1
DILUPBiCGStab:  Solving for H2, Initial residual = 6.077018355e-05, Final residual = 7.270164638e-09, No Iterations 1
DILUPBiCGStab:  Solving for H, Initial residual = 7.095439778e-05, Final residual = 4.411129727e-09, No Iterations 1
DILUPBiCGStab:  Solving for O, Initial residual = 0.0002340884035, Final residual = 5.898656402e-08, No Iterations 1
DILUPBiCGStab:  Solving for O2, Initial residual = 3.331473835e-06, Final residual = 4.979355877e-10, No Iterations 1
DILUPBiCGStab:  Solving for OH, Initial residual = 0.0009552156218, Final residual = 2.05114067e-07, No Iterations 1
DILUPBiCGStab:  Solving for H2O, Initial residual = 1.526698742e-05, Final residual = 2.902091071e-09, No Iterations 1
DILUPBiCGStab:  Solving for HO2, Initial residual = 0.004298915895, Final residual = 9.805587524e-07, No Iterations 1
DILUPBiCGStab:  Solving for H2O2, Initial residual = 0.00969322925, Final residual = 2.034246565e-06, No Iterations 1
DILUPBiCGStab:  Solving for C, Initial residual = 0.0005188098617, Final residual = 4.35803761e-09, No Iterations 1
DILUPBiCGStab:  Solving for CH, Initial residual = 0.0005742316677, Final residual = 6.35545324e-09, No Iterations 1
DILUPBiCGStab:  Solving for CH2, Initial residual = 0.00145912131, Final residual = 1.952821266e-07, No Iterations 1
DILUPBiCGStab:  Solving for CH2(S), Initial residual = 0.001349220893, Final residual = 1.651523488e-07, No Iterations 1
DILUPBiCGStab:  Solving for CH3, Initial residual = 0.0007706157946, Final residual = 1.080905025e-07, No Iterations 1
DILUPBiCGStab:  Solving for CH4, Initial residual = 1.222687337e-06, Final residual = 2.524479843e-10, No Iterations 1
DILUPBiCGStab:  Solving for CO, Initial residual = 5.845350157e-05, Final residual = 7.341205828e-09, No Iterations 1
DILUPBiCGStab:  Solving for CO2, Initial residual = 1.475349945e-06, Final residual = 9.494229348e-11, No Iterations 1
DILUPBiCGStab:  Solving for HCO, Initial residual = 0.0006553082138, Final residual = 2.556065213e-08, No Iterations 1
DILUPBiCGStab:  Solving for CH2O, Initial residual = 0.001688307922, Final residual = 3.353260477e-07, No Iterations 1
DILUPBiCGStab:  Solving for CH2OH, Initial residual = 0.0009420195409, Final residual = 5.594764875e-08, No Iterations 1
DILUPBiCGStab:  Solving for CH3O, Initial residual = 0.001476601073, Final residual = 2.444810738e-07, No Iterations 1
DILUPBiCGStab:  Solving for CH3OH, Initial residual = 0.002893024321, Final residual = 6.814279896e-07, No Iterations 1
DILUPBiCGStab:  Solving for C2H, Initial residual = 0.0003960064408, Final residual = 4.015697537e-09, No Iterations 1
DILUPBiCGStab:  Solving for C2H2, Initial residual = 0.0004928196671, Final residual = 1.783343853e-08, No Iterations 1
DILUPBiCGStab:  Solving for C2H3, Initial residual = 0.0001761388065, Final residual = 2.865486856e-09, No Iterations 1
DILUPBiCGStab:  Solving for C2H4, Initial residual = 0.0004476801007, Final residual = 1.961048144e-08, No Iterations 1
DILUPBiCGStab:  Solving for C2H5, Initial residual = 0.0003026363512, Final residual = 1.96066082e-08, No Iterations 1
DILUPBiCGStab:  Solving for C2H6, Initial residual = 0.0005204086983, Final residual = 5.46759052e-08, No Iterations 1
DILUPBiCGStab:  Solving for HCCO, Initial residual = 0.00043010547, Final residual = 6.223978572e-09, No Iterations 1
DILUPBiCGStab:  Solving for CH2CO, Initial residual = 0.0005465081483, Final residual = 1.832495273e-08, No Iterations 1
DILUPBiCGStab:  Solving for HCCOH, Initial residual = 0.0005057515783, Final residual = 1.009397151e-08, No Iterations 1
DILUPBiCGStab:  Solving for AR, Initial residual = 0, Final residual = 0, No Iterations 0
DILUPBiCGStab:  Solving for C3H7, Initial residual = 0.0002971278585, Final residual = 1.371477225e-08, No Iterations 1
DILUPBiCGStab:  Solving for C3H8, Initial residual = 0.000563507767, Final residual = 2.928643351e-08, No Iterations 1
DILUPBiCGStab:  Solving for CH2CHO, Initial residual = 0.0003762101855, Final residual = 1.560361314e-08, No Iterations 1
DILUPBiCGStab:  Solving for CH3CHO, Initial residual = 0.0004459949821, Final residual = 3.440326551e-08, No Iterations 1
DILUPBiCGStab:  Solving for h, Initial residual = 1.608453109e-05, Final residual = 3.123921502e-09, No Iterations 1
min/max(T) = 290.9998451, 1883.097902
DICPCG:  Solving for p, Initial residual = 0.00641998041, Final residual = 3.562922877e-05, No Iterations 1
diagonal:  Solving for rho, Initial residual = 0, Final residual = 0, No Iterations 0
time step continuity errors : sum local = 1.927614874e-08, global = -2.658290713e-09, cumulative = -3.372848235e-09
DICPCG:  Solving for p, Initial residual = 0.00362438429, Final residual = 4.063705531e-08, No Iterations 3
diagonal:  Solving for rho, Initial residual = 0, Final residual = 0, No Iterations 0
time step continuity errors : sum local = 2.335536482e-11, global = -1.58240047e-11, cumulative = -3.388672239e-09
DILUPBiCGStab:  Solving for epsilon, Initial residual = 2.10947558e-06, Final residual = 7.40325919e-11, No Iterations 1
DILUPBiCGStab:  Solving for k, Initial residual = 6.825082971e-07, Final residual = 6.825082971e-07, No Iterations 0
ExecutionTime = 3.69 s  ClockTime = 3 s

Courant Number mean: 0.0007912858501 max: 0.05398529625
deltaT = 5.15800196e-06
Time = 2.495450797e-05

diagonal:  Solving for rho, Initial residual = 0, Final residual = 0, No Iterations 0
DILUPBiCGStab:  Solving for Ux, Initial residual = 0.002578168411, Final residual = 4.001462058e-07, No Iterations 1
DILUPBiCGStab:  Solving for Uy, Initial residual = 0.0001260549818, Final residual = 7.133014346e-09, No Iterations 1
DILUPBiCGStab:  Solving for Uz, Initial residual = 3.100777464e-06, Final residual = 4.814891782e-10, No Iterations 1
DILUPBiCGStab:  Solving for H2, Initial residual = 6.867224565e-05, Final residual = 1.000933026e-08, No Iterations 1
DILUPBiCGStab:  Solving for H, Initial residual = 6.144868756e-05, Final residual = 3.922773724e-09, No Iterations 1
DILUPBiCGStab:  Solving for O, Initial residual = 0.0002625742026, Final residual = 8.073948557e-08, No Iterations 1
DILUPBiCGStab:  Solving for O2, Initial residual = 3.250722246e-06, Final residual = 5.804580517e-10, No Iterations 1
DILUPBiCGStab:  Solving for OH, Initial residual = 0.001020686649, Final residual = 2.6221863e-07, No Iterations 1
DILUPBiCGStab:  Solving for H2O, Initial residual = 1.599564961e-05, Final residual = 3.618377243e-09, No Iterations 1
DILUPBiCGStab:  Solving for HO2, Initial residual = 0.004384065055, Final residual = 1.272238657e-06, No Iterations 1
DILUPBiCGStab:  Solving for H2O2, Initial residual = 0.009004204236, Final residual = 2.324570316e-06, No Iterations 1
DILUPBiCGStab:  Solving for C, Initial residual = 0.0005555030555, Final residual = 7.432524081e-09, No Iterations 1
DILUPBiCGStab:  Solving for CH, Initial residual = 0.0006364536028, Final residual = 1.0691748e-08, No Iterations 1
DILUPBiCGStab:  Solving for CH2, Initial residual = 0.001741769825, Final residual = 2.885774895e-07, No Iterations 1
DILUPBiCGStab:  Solving for CH2(S), Initial residual = 0.001577423003, Final residual = 2.450450372e-07, No Iterations 1
DILUPBiCGStab:  Solving for CH3, Initial residual = 0.0007457890992, Final residual = 1.399051893e-07, No Iterations 1
DILUPBiCGStab:  Solving for CH4, Initial residual = 1.308739004e-06, Final residual = 3.067879814e-10, No Iterations 1
DILUPBiCGStab:  Solving for CO, Initial residual = 6.435310343e-05, Final residual = 1.015088036e-08, No Iterations 1
DILUPBiCGStab:  Solving for CO2, Initial residual = 1.749698789e-06, Final residual = 1.282613756e-10, No Iterations 1
DILUPBiCGStab:  Solving for HCO, Initial residual = 0.0007325006619, Final residual = 3.794678153e-08, No Iterations 1
DILUPBiCGStab:  Solving for CH2O, Initial residual = 0.001708657706, Final residual = 4.144946911e-07, No Iterations 1
DILUPBiCGStab:  Solving for CH2OH, Initial residual = 0.001053898015, Final residual = 8.867379133e-08, No Iterations 1
DILUPBiCGStab:  Solving for CH3O, Initial residual = 0.001242912568, Final residual = 2.751258552e-07, No Iterations 1
DILUPBiCGStab:  Solving for CH3OH, Initial residual = 0.002818785342, Final residual = 7.578349041e-07, No Iterations 1
DILUPBiCGStab:  Solving for C2H, Initial residual = 0.000260047035, Final residual = 2.169070833e-09, No Iterations 1
DILUPBiCGStab:  Solving for C2H2, Initial residual = 0.0005181542131, Final residual = 2.651564569e-08, No Iterations 1
DILUPBiCGStab:  Solving for C2H3, Initial residual = 0.0002691671994, Final residual = 7.102973691e-09, No Iterations 1
DILUPBiCGStab:  Solving for C2H4, Initial residual = 0.0004158681419, Final residual = 2.516975535e-08, No Iterations 1
DILUPBiCGStab:  Solving for C2H5, Initial residual = 0.0003407604446, Final residual = 2.831737605e-08, No Iterations 1
DILUPBiCGStab:  Solving for C2H6, Initial residual = 0.0004437456666, Final residual = 6.39740893e-08, No Iterations 1
DILUPBiCGStab:  Solving for HCCO, Initial residual = 0.0002703501631, Final residual = 4.934591026e-09, No Iterations 1
DILUPBiCGStab:  Solving for CH2CO, Initial residual = 0.0004574932761, Final residual = 2.355370958e-08, No Iterations 1
DILUPBiCGStab:  Solving for HCCOH, Initial residual = 0.0004391156418, Final residual = 1.148843365e-08, No Iterations 1
DILUPBiCGStab:  Solving for AR, Initial residual = 0, Final residual = 0, No Iterations 0
DILUPBiCGStab:  Solving for C3H7, Initial residual = 0.0003279766496, Final residual = 2.034878131e-08, No Iterations 1
DILUPBiCGStab:  Solving for C3H8, Initial residual = 0.0004316505614, Final residual = 3.256916663e-08, No Iterations 1
DILUPBiCGStab:  Solving for CH2CHO, Initial residual = 0.0004406418201, Final residual = 2.533783462e-08, No Iterations 1
DILUPBiCGStab:  Solving for CH3CHO, Initial residual = 0.0004177976022, Final residual = 4.639233569e-08, No Iterations 1
DILUPBiCGStab:  Solving for h, Initial residual = 1.725345699e-05, Final residual = 4.003382829e-09, No Iterations 1
min/max(T) = 290.9998378, 1884.358721
DICPCG:  Solving for p, Initial residual = 0.006554746402, Final residual = 5.829972097e-05, No Iterations 1
diagonal:  Solving for rho, Initial residual = 0, Final residual = 0, No Iterations 0
time step continuity errors : sum local = 3.347749994e-08, global = -7.90598677e-09, cumulative = -1.129465901e-08
DICPCG:  Solving for p, Initial residual = 0.003741382896, Final residual = 1.097586802e-07, No Iterations 3
diagonal:  Solving for rho, Initial residual = 0, Final residual = 0, No Iterations 0
time step continuity errors : sum local = 6.617214027e-11, global = -3.198923229e-11, cumulative = -1.132664824e-08
DILUPBiCGStab:  Solving for epsilon, Initial residual = 2.131263553e-06, Final residual = 1.004540193e-10, No Iterations 1
DILUPBiCGStab:  Solving for k, Initial residual = 8.67386681e-07, Final residual = 8.67386681e-07, No Iterations 0
ExecutionTime = 4.02 s  ClockTime = 4 s

Courant Number mean: 0.0009499017049 max: 0.06450050784
deltaT = 6.189602352e-06
Time = 3.114411033e-05

diagonal:  Solving for rho, Initial residual = 0, Final residual = 0, No Iterations 0
DILUPBiCGStab:  Solving for Ux, Initial residual = 0.003195970231, Final residual = 6.232873539e-07, No Iterations 1
DILUPBiCGStab:  Solving for Uy, Initial residual = 0.0001493993399, Final residual = 9.777240751e-09, No Iterations 1
DILUPBiCGStab:  Solving for Uz, Initial residual = 3.917972338e-06, Final residual = 7.919650929e-10, No Iterations 1
DILUPBiCGStab:  Solving for H2, Initial residual = 7.89757616e-05, Final residual = 1.287644423e-08, No Iterations 1
DILUPBiCGStab:  Solving for H, Initial residual = 5.992964766e-05, Final residual = 3.774359312e-09, No Iterations 1
DILUPBiCGStab:  Solving for O, Initial residual = 0.0002966712214, Final residual = 1.065299805e-07, No Iterations 1
DILUPBiCGStab:  Solving for O2, Initial residual = 3.198652695e-06, Final residual = 6.8735412e-10, No Iterations 1
DILUPBiCGStab:  Solving for OH, Initial residual = 0.001080592796, Final residual = 3.326873818e-07, No Iterations 1
DILUPBiCGStab:  Solving for H2O, Initial residual = 1.664141608e-05, Final residual = 4.481152495e-09, No Iterations 1
DILUPBiCGStab:  Solving for HO2, Initial residual = 0.004448787447, Final residual = 1.653565745e-06, No Iterations 1
DILUPBiCGStab:  Solving for H2O2, Initial residual = 0.00839697413, Final residual = 2.686791509e-06, No Iterations 1
DILUPBiCGStab:  Solving for C, Initial residual = 0.0006570023088, Final residual = 1.519887615e-08, No Iterations 1
DILUPBiCGStab:  Solving for CH, Initial residual = 0.0007616853649, Final residual = 2.023025704e-08, No Iterations 1
DILUPBiCGStab:  Solving for CH2, Initial residual = 0.002140124434, Final residual = 4.247748744e-07, No Iterations 1
DILUPBiCGStab:  Solving for CH2(S), Initial residual = 0.001903823007, Final residual = 3.628938785e-07, No Iterations 1
DILUPBiCGStab:  Solving for CH3, Initial residual = 0.0007423829022, Final residual = 1.828887877e-07, No Iterations 1
DILUPBiCGStab:  Solving for CH4, Initial residual = 1.41099602e-06, Final residual = 3.463547484e-10, No Iterations 1
DILUPBiCGStab:  Solving for CO, Initial residual = 7.066465356e-05, Final residual = 1.425054518e-08, No Iterations 1
DILUPBiCGStab:  Solving for CO2, Initial residual = 2.03300573e-06, Final residual = 1.695315495e-10, No Iterations 1
DILUPBiCGStab:  Solving for HCO, Initial residual = 0.000827866271, Final residual = 6.072136245e-08, No Iterations 1
DILUPBiCGStab:  Solving for CH2O, Initial residual = 0.001735150292, Final residual = 5.081007598e-07, No Iterations 1
DILUPBiCGStab:  Solving for CH2OH, Initial residual = 0.001195124995, Final residual = 1.540103762e-07, No Iterations 1
DILUPBiCGStab:  Solving for CH3O, Initial residual = 0.001047621866, Final residual = 3.104919829e-07, No Iterations 1
DILUPBiCGStab:  Solving for CH3OH, Initial residual = 0.002758328497, Final residual = 8.436819201e-07, No Iterations 1
DILUPBiCGStab:  Solving for C2H, Initial residual = 0.0004786369216, Final residual = 1.12110426e-08, No Iterations 1
DILUPBiCGStab:  Solving for C2H2, Initial residual = 0.0006235584514, Final residual = 4.463418566e-08, No Iterations 1
DILUPBiCGStab:  Solving for C2H3, Initial residual = 0.0003371525887, Final residual = 1.410695499e-08, No Iterations 1
DILUPBiCGStab:  Solving for C2H4, Initial residual = 0.000386942559, Final residual = 3.342389351e-08, No Iterations 1
DILUPBiCGStab:  Solving for C2H5, Initial residual = 0.0003666998464, Final residual = 4.054610454e-08, No Iterations 1
DILUPBiCGStab:  Solving for C2H6, Initial residual = 0.000386380768, Final residual = 7.550521192e-08, No Iterations 1
DILUPBiCGStab:  Solving for HCCO, Initial residual = 0.0003197641055, Final residual = 9.337686029e-09, No Iterations 1
DILUPBiCGStab:  Solving for CH2CO, Initial residual = 0.0005181563236, Final residual = 3.676167409e-08, No Iterations 1
DILUPBiCGStab:  Solving for HCCOH, Initial residual = 0.000398352321, Final residual = 1.595475304e-08, No Iterations 1
DILUPBiCGStab:  Solving for AR, Initial residual = 0, Final residual = 0, No Iterations 0
DILUPBiCGStab:  Solving for C3H7, Initial residual = 0.0003228120092, Final residual = 2.814276671e-08, No Iterations 1
DILUPBiCGStab:  Solving for C3H8, Initial residual = 0.0003362414895, Final residual = 3.694539528e-08, No Iterations 1
DILUPBiCGStab:  Solving for CH2CHO, Initial residual = 0.0004811608594, Final residual = 3.90610329e-08, No Iterations 1
DILUPBiCGStab:  Solving for CH3CHO, Initial residual = 0.0003917325707, Final residual = 6.176277186e-08, No Iterations 1
DILUPBiCGStab:  Solving for h, Initial residual = 1.805138471e-05, Final residual = 4.973241039e-09, No Iterations 1
min/max(T) = 290.9998309, 1885.350652
DICPCG:  Solving for p, Initial residual = 0.006729625995, Final residual = 4.999766103e-06, No Iterations 2
diagonal:  Solving for rho, Initial residual = 0, Final residual = 0, No Iterations 0
time step continuity errors : sum local = 3.011421705e-09, global = 2.298068994e-09, cumulative = -9.028579248e-09
DICPCG:  Solving for p, Initial residual = 0.003895804935, Final residual = 2.980353555e-07, No Iterations 3
diagonal:  Solving for rho, Initial residual = 0, Final residual = 0, No Iterations 0
time step continuity errors : sum local = 1.860962231e-10, global = -2.313270647e-11, cumulative = -9.051711955e-09
DILUPBiCGStab:  Solving for epsilon, Initial residual = 2.50173429e-06, Final residual = 1.603010061e-10, No Iterations 1
DILUPBiCGStab:  Solving for k, Initial residual = 1.094898008e-06, Final residual = 9.110909504e-11, No Iterations 1
ExecutionTime = 4.35 s  ClockTime = 4 s

Courant Number mean: 0.001140630623 max: 0.08032897623
deltaT = 7.426786404e-06
Time = 3.857089673e-05

diagonal:  Solving for rho, Initial residual = 0, Final residual = 0, No Iterations 0
DILUPBiCGStab:  Solving for Ux, Initial residual = 0.003884370394, Final residual = 9.287676522e-07, No Iterations 1
DILUPBiCGStab:  Solving for Uy, Initial residual = 0.0001789363635, Final residual = 1.463234646e-08, No Iterations 1
DILUPBiCGStab:  Solving for Uz, Initial residual = 4.907720015e-06, Final residual = 1.268758418e-09, No Iterations 1
DILUPBiCGStab:  Solving for H2, Initial residual = 8.952944184e-05, Final residual = 1.655873569e-08, No Iterations 1
DILUPBiCGStab:  Solving for H, Initial residual = 6.213193858e-05, Final residual = 4.11185094e-09, No Iterations 1
DILUPBiCGStab:  Solving for O, Initial residual = 0.0003376640872, Final residual = 1.389337211e-07, No Iterations 1
DILUPBiCGStab:  Solving for O2, Initial residual = 3.119055472e-06, Final residual = 8.021280308e-10, No Iterations 1
DILUPBiCGStab:  Solving for OH, Initial residual = 0.001133518548, Final residual = 4.198165089e-07, No Iterations 1
DILUPBiCGStab:  Solving for H2O, Initial residual = 1.72104028e-05, Final residual = 5.524690844e-09, No Iterations 1
DILUPBiCGStab:  Solving for HO2, Initial residual = 0.00439884002, Final residual = 2.091455693e-06, No Iterations 1
DILUPBiCGStab:  Solving for H2O2, Initial residual = 0.007832059886, Final residual = 3.12685241e-06, No Iterations 1
DILUPBiCGStab:  Solving for C, Initial residual = 0.0008510599012, Final residual = 3.589996867e-08, No Iterations 1
DILUPBiCGStab:  Solving for CH, Initial residual = 0.0009533457125, Final residual = 4.252313842e-08, No Iterations 1
DILUPBiCGStab:  Solving for CH2, Initial residual = 0.002667620012, Final residual = 6.225079463e-07, No Iterations 1
DILUPBiCGStab:  Solving for CH2(S), Initial residual = 0.00234321747, Final residual = 5.381122284e-07, No Iterations 1
DILUPBiCGStab:  Solving for CH3, Initial residual = 0.0007703084744, Final residual = 2.404793793e-07, No Iterations 1
DILUPBiCGStab:  Solving for CH4, Initial residual = 1.536534587e-06, Final residual = 3.637842257e-10, No Iterations 1
DILUPBiCGStab:  Solving for CO, Initial residual = 7.755399685e-05, Final residual = 1.978099737e-08, No Iterations 1
DILUPBiCGStab:  Solving for CO2, Initial residual = 2.328950887e-06, Final residual = 2.195561578e-10, No Iterations 1
DILUPBiCGStab:  Solving for HCO, Initial residual = 0.0009235633849, Final residual = 1.035692437e-07, No Iterations 1
DILUPBiCGStab:  Solving for CH2O, Initial residual = 0.001761655302, Final residual = 6.187346106e-07, No Iterations 1
DILUPBiCGStab:  Solving for CH2OH, Initial residual = 0.0013518968, Final residual = 2.611452163e-07, No Iterations 1
DILUPBiCGStab:  Solving for CH3O, Initial residual = 0.0008841279356, Final residual = 3.500412737e-07, No Iterations 1
DILUPBiCGStab:  Solving for CH3OH, Initial residual = 0.002699990921, Final residual = 9.44088337e-07, No Iterations 1
DILUPBiCGStab:  Solving for C2H, Initial residual = 0.0008012748269, Final residual = 3.653474149e-08, No Iterations 1
DILUPBiCGStab:  Solving for C2H2, Initial residual = 0.0006781290866, Final residual = 7.330611019e-08, No Iterations 1
DILUPBiCGStab:  Solving for C2H3, Initial residual = 0.0003521910926, Final residual = 2.526086402e-08, No Iterations 1
DILUPBiCGStab:  Solving for C2H4, Initial residual = 0.0003614786186, Final residual = 4.537688855e-08, No Iterations 1
DILUPBiCGStab:  Solving for C2H5, Initial residual = 0.0003733670136, Final residual = 5.572534645e-08, No Iterations 1
DILUPBiCGStab:  Solving for C2H6, Initial residual = 0.000342068875, Final residual = 8.928872888e-08, No Iterations 1
DILUPBiCGStab:  Solving for HCCO, Initial residual = 0.0006224596903, Final residual = 3.187712283e-08, No Iterations 1
DILUPBiCGStab:  Solving for CH2CO, Initial residual = 0.0005947251234, Final residual = 6.037059642e-08, No Iterations 1
DILUPBiCGStab:  Solving for HCCOH, Initial residual = 0.0007106833857, Final residual = 4.550869577e-08, No Iterations 1
DILUPBiCGStab:  Solving for AR, Initial residual = 0, Final residual = 0, No Iterations 0
DILUPBiCGStab:  Solving for C3H7, Initial residual = 0.0002893343303, Final residual = 3.698506131e-08, No Iterations 1
DILUPBiCGStab:  Solving for C3H8, Initial residual = 0.0002667066379, Final residual = 4.276195917e-08, No Iterations 1
DILUPBiCGStab:  Solving for CH2CHO, Initial residual = 0.0004812659427, Final residual = 5.734281914e-08, No Iterations 1
DILUPBiCGStab:  Solving for CH3CHO, Initial residual = 0.0003634337558, Final residual = 8.064235705e-08, No Iterations 1
DILUPBiCGStab:  Solving for h, Initial residual = 1.889579101e-05, Final residual = 6.179807121e-09, No Iterations 1
min/max(T) = 290.9998255, 1886.245346
DICPCG:  Solving for p, Initial residual = 0.007060944473, Final residual = 8.840954342e-06, No Iterations 2
diagonal:  Solving for rho, Initial residual = 0, Final residual = 0, No Iterations 0
time step continuity errors : sum local = 5.515101461e-09, global = 4.452529679e-09, cumulative = -4.599182275e-09
DICPCG:  Solving for p, Initial residual = 0.004158688721, Final residual = 6.06019573e-07, No Iterations 3
diagonal:  Solving for rho, Initial residual = 0, Final residual = 0, No Iterations 0
time step continuity errors : sum local = 3.853004651e-10, global = 1.437295694e-11, cumulative = -4.584809318e-09
DILUPBiCGStab:  Solving for epsilon, Initial residual = 3.143747355e-06, Final residual = 2.813801402e-10, No Iterations 1
DILUPBiCGStab:  Solving for k, Initial residual = 2.370488783e-06, Final residual = 2.576248857e-10, No Iterations 1
ExecutionTime = 4.69 s  ClockTime = 4 s

Courant Number mean: 0.001369670697 max: 0.1098423592
deltaT = 8.911613389e-06
Time = 4.748251012e-05

diagonal:  Solving for rho, Initial residual = 0, Final residual = 0, No Iterations 0
DILUPBiCGStab:  Solving for Ux, Initial residual = 0.004552445759, Final residual = 1.330928355e-06, No Iterations 1
DILUPBiCGStab:  Solving for Uy, Initial residual = 0.0002128224539, Final residual = 1.998030493e-08, No Iterations 1
DILUPBiCGStab:  Solving for Uz, Initial residual = 6.141876521e-06, Final residual = 1.953460536e-09, No Iterations 1
DILUPBiCGStab:  Solving for H2, Initial residual = 9.987499919e-05, Final residual = 2.177906748e-08, No Iterations 1
DILUPBiCGStab:  Solving for H, Initial residual = 6.602427223e-05, Final residual = 4.465572664e-09, No Iterations 1
DILUPBiCGStab:  Solving for O, Initial residual = 0.000385836092, Final residual = 1.81980588e-07, No Iterations 1
DILUPBiCGStab:  Solving for O2, Initial residual = 3.058599025e-06, Final residual = 9.513323404e-10, No Iterations 1
DILUPBiCGStab:  Solving for OH, Initial residual = 0.001177592535, Final residual = 5.274494789e-07, No Iterations 1
DILUPBiCGStab:  Solving for H2O, Initial residual = 1.772254196e-05, Final residual = 6.80242105e-09, No Iterations 1
DILUPBiCGStab:  Solving for HO2, Initial residual = 0.00425609469, Final residual = 2.583904898e-06, No Iterations 1
DILUPBiCGStab:  Solving for H2O2, Initial residual = 0.007290910542, Final residual = 3.652804278e-06, No Iterations 1
DILUPBiCGStab:  Solving for C, Initial residual = 0.001085446497, Final residual = 7.481949641e-08, No Iterations 1
DILUPBiCGStab:  Solving for CH, Initial residual = 0.001149377512, Final residual = 8.056398324e-08, No Iterations 1
DILUPBiCGStab:  Solving for CH2, Initial residual = 0.003320445049, Final residual = 9.221869978e-07, No Iterations 1
DILUPBiCGStab:  Solving for CH2(S), Initial residual = 0.002893687752, Final residual = 8.048804084e-07, No Iterations 1
DILUPBiCGStab:  Solving for CH3, Initial residual = 0.0008289962674, Final residual = 3.194687503e-07, No Iterations 1
DILUPBiCGStab:  Solving for CH4, Initial residual = 1.743269048e-06, Final residual = 4.378511983e-10, No Iterations 1
DILUPBiCGStab:  Solving for CO, Initial residual = 8.542751361e-05, Final residual = 2.517642504e-08, No Iterations 1
DILUPBiCGStab:  Solving for CO2, Initial residual = 2.715277735e-06, Final residual = 3.353065117e-10, No Iterations 1
DILUPBiCGStab:  Solving for HCO, Initial residual = 0.0009662739094, Final residual = 1.675121719e-07, No Iterations 1
DILUPBiCGStab:  Solving for CH2O, Initial residual = 0.00178651999, Final residual = 7.499129148e-07, No Iterations 1
DILUPBiCGStab:  Solving for CH2OH, Initial residual = 0.001486449603, Final residual = 4.217042577e-07, No Iterations 1
DILUPBiCGStab:  Solving for CH3O, Initial residual = 0.0007408137428, Final residual = 3.862235761e-07, No Iterations 1
DILUPBiCGStab:  Solving for CH3OH, Initial residual = 0.002637833251, Final residual = 1.066095797e-06, No Iterations 1
DILUPBiCGStab:  Solving for C2H, Initial residual = 0.001024340329, Final residual = 7.800213877e-08, No Iterations 1
DILUPBiCGStab:  Solving for C2H2, Initial residual = 0.0006881008343, Final residual = 1.151209775e-07, No Iterations 1
DILUPBiCGStab:  Solving for C2H3, Initial residual = 0.000320267874, Final residual = 4.084999166e-08, No Iterations 1
DILUPBiCGStab:  Solving for C2H4, Initial residual = 0.0003425550043, Final residual = 6.262850442e-08, No Iterations 1
DILUPBiCGStab:  Solving for C2H5, Initial residual = 0.0003606081784, Final residual = 7.31589462e-08, No Iterations 1
DILUPBiCGStab:  Solving for C2H6, Initial residual = 0.0003071251751, Final residual = 1.060767986e-07, No Iterations 1
DILUPBiCGStab:  Solving for HCCO, Initial residual = 0.0008355974619, Final residual = 7.037137079e-08, No Iterations 1
DILUPBiCGStab:  Solving for CH2CO, Initial residual = 0.0006347544451, Final residual = 9.626324952e-08, No Iterations 1
DILUPBiCGStab:  Solving for HCCOH, Initial residual = 0.0009277773735, Final residual = 1.006424385e-07, No Iterations 1
DILUPBiCGStab:  Solving for AR, Initial residual = 0, Final residual = 0, No Iterations 0
DILUPBiCGStab:  Solving for C3H7, Initial residual = 0.0002515529876, Final residual = 4.757346936e-08, No Iterations 1
DILUPBiCGStab:  Solving for C3H8, Initial residual = 0.0002169338386, Final residual = 5.063761766e-08, No Iterations 1
DILUPBiCGStab:  Solving for CH2CHO, Initial residual = 0.0004370931914, Final residual = 7.817943144e-08, No Iterations 1
DILUPBiCGStab:  Solving for CH3CHO, Initial residual = 0.000336702308, Final residual = 1.02087858e-07, No Iterations 1
DILUPBiCGStab:  Solving for h, Initial residual = 1.966424599e-05, Final residual = 7.639535586e-09, No Iterations 1
min/max(T) = 290.9998227, 1887.177054
DICPCG:  Solving for p, Initial residual = 0.007552768708, Final residual = 1.783104454e-05, No Iterations 2
diagonal:  Solving for rho, Initial residual = 0, Final residual = 0, No Iterations 0
time step continuity errors : sum local = 1.132594036e-08, global = 9.419407877e-09, cumulative = 4.834598558e-09
DICPCG:  Solving for p, Initial residual = 0.004545825352, Final residual = 4.110227053e-07, No Iterations 4
diagonal:  Solving for rho, Initial residual = 0, Final residual = 0, No Iterations 0
time step continuity errors : sum local = 2.605300752e-10, global = -1.726077003e-10, cumulative = 4.661990858e-09
DILUPBiCGStab:  Solving for epsilon, Initial residual = 4.347184137e-06, Final residual = 5.691853036e-10, No Iterations 1
DILUPBiCGStab:  Solving for k, Initial residual = 2.853975516e-06, Final residual = 4.30641476e-10, No Iterations 1
ExecutionTime = 5.01 s  ClockTime = 5 s

Courant Number mean: 0.001644855666 max: 0.1451602107
deltaT = 1.069088153e-05
Time = 5.817339165e-05

diagonal:  Solving for rho, Initial residual = 0, Final residual = 0, No Iterations 0
DILUPBiCGStab:  Solving for Ux, Initial residual = 0.005205655522, Final residual = 1.849668073e-06, No Iterations 1
DILUPBiCGStab:  Solving for Uy, Initial residual = 0.0002575631348, Final residual = 2.929402808e-08, No Iterations 1
DILUPBiCGStab:  Solving for Uz, Initial residual = 7.662565828e-06, Final residual = 2.982204603e-09, No Iterations 1
DILUPBiCGStab:  Solving for H2, Initial residual = 0.0001101335578, Final residual = 2.901025088e-08, No Iterations 1
DILUPBiCGStab:  Solving for H, Initial residual = 7.162926456e-05, Final residual = 4.944202045e-09, No Iterations 1
DILUPBiCGStab:  Solving for O, Initial residual = 0.0004423530745, Final residual = 2.367809589e-07, No Iterations 1
DILUPBiCGStab:  Solving for O2, Initial residual = 3.067088911e-06, Final residual = 1.158303936e-09, No Iterations 1
DILUPBiCGStab:  Solving for OH, Initial residual = 0.001211439077, Final residual = 6.594953664e-07, No Iterations 1
DILUPBiCGStab:  Solving for H2O, Initial residual = 1.827286186e-05, Final residual = 8.371474756e-09, No Iterations 1
DILUPBiCGStab:  Solving for HO2, Initial residual = 0.004018616698, Final residual = 3.09503152e-06, No Iterations 1
DILUPBiCGStab:  Solving for H2O2, Initial residual = 0.006757965879, Final residual = 4.266966167e-06, No Iterations 1
DILUPBiCGStab:  Solving for C, Initial residual = 0.001243493841, Final residual = 1.356737774e-07, No Iterations 1
DILUPBiCGStab:  Solving for CH, Initial residual = 0.00124405017, Final residual = 1.354944601e-07, No Iterations 1
DILUPBiCGStab:  Solving for CH2, Initial residual = 0.004051689147, Final residual = 1.403133825e-06, No Iterations 1
DILUPBiCGStab:  Solving for CH2(S), Initial residual = 0.003517635018, Final residual = 1.18258527e-06, No Iterations 1
DILUPBiCGStab:  Solving for CH3, Initial residual = 0.000911447149, Final residual = 4.367676189e-07, No Iterations 1
DILUPBiCGStab:  Solving for CH4, Initial residual = 2.057298793e-06, Final residual = 6.408018021e-10, No Iterations 1
DILUPBiCGStab:  Solving for CO, Initial residual = 9.522277986e-05, Final residual = 3.031874343e-08, No Iterations 1
DILUPBiCGStab:  Solving for CO2, Initial residual = 3.208521564e-06, Final residual = 5.498881065e-10, No Iterations 1
DILUPBiCGStab:  Solving for HCO, Initial residual = 0.0009121087394, Final residual = 2.496682776e-07, No Iterations 1
DILUPBiCGStab:  Solving for CH2O, Initial residual = 0.001805992519, Final residual = 9.069592073e-07, No Iterations 1
DILUPBiCGStab:  Solving for CH2OH, Initial residual = 0.001570246338, Final residual = 6.42989037e-07, No Iterations 1
DILUPBiCGStab:  Solving for CH3O, Initial residual = 0.0006190561622, Final residual = 4.0955888e-07, No Iterations 1
DILUPBiCGStab:  Solving for CH3OH, Initial residual = 0.002566642042, Final residual = 1.216069354e-06, No Iterations 1
DILUPBiCGStab:  Solving for C2H, Initial residual = 0.001008399202, Final residual = 1.351958079e-07, No Iterations 1
DILUPBiCGStab:  Solving for C2H2, Initial residual = 0.000700238758, Final residual = 1.791691003e-07, No Iterations 1
DILUPBiCGStab:  Solving for C2H3, Initial residual = 0.0003028275953, Final residual = 6.881117693e-08, No Iterations 1
DILUPBiCGStab:  Solving for C2H4, Initial residual = 0.0003339081768, Final residual = 8.831594464e-08, No Iterations 1
DILUPBiCGStab:  Solving for C2H5, Initial residual = 0.0003298202339, Final residual = 9.270321684e-08, No Iterations 1
DILUPBiCGStab:  Solving for C2H6, Initial residual = 0.0002805441756, Final residual = 1.267217415e-07, No Iterations 1
DILUPBiCGStab:  Solving for HCCO, Initial residual = 0.0008750986261, Final residual = 1.293476996e-07, No Iterations 1
DILUPBiCGStab:  Solving for CH2CO, Initial residual = 0.0006521952547, Final residual = 1.512372886e-07, No Iterations 1
DILUPBiCGStab:  Solving for HCCOH, Initial residual = 0.0009839255834, Final residual = 1.923052488e-07, No Iterations 1
DILUPBiCGStab:  Solving for AR, Initial residual = 0, Final residual = 0, No Iterations 0
DILUPBiCGStab:  Solving for C3H7, Initial residual = 0.0002123823576, Final residual = 5.856949798e-08, No Iterations 1
DILUPBiCGStab:  Solving for C3H8, Initial residual = 0.0001964295201, Final residual = 6.637249627e-08, No Iterations 1
DILUPBiCGStab:  Solving for CH2CHO, Initial residual = 0.0003708555914, Final residual = 1.024765562e-07, No Iterations 1
DILUPBiCGStab:  Solving for CH3CHO, Initial residual = 0.0003194571765, Final residual = 1.257711459e-07, No Iterations 1
DILUPBiCGStab:  Solving for h, Initial residual = 2.049557156e-05, Final residual = 9.444982989e-09, No Iterations 1
min/max(T) = 290.9998236, 1888.235207
DICPCG:  Solving for p, Initial residual = 0.008512874246, Final residual = 3.562983577e-05, No Iterations 2
diagonal:  Solving for rho, Initial residual = 0, Final residual = 0, No Iterations 0
time step continuity errors : sum local = 2.256510936e-08, global = 1.759218027e-08, cumulative = 2.225417113e-08
DICPCG:  Solving for p, Initial residual = 0.005245066466, Final residual = 1.605608913e-07, No Iterations 5
diagonal:  Solving for rho, Initial residual = 0, Final residual = 0, No Iterations 0
time step continuity errors : sum local = 9.918986826e-11, global = -6.441371614e-11, cumulative = 2.218975742e-08
DILUPBiCGStab:  Solving for epsilon, Initial residual = 5.664242838e-06, Final residual = 1.041483226e-09, No Iterations 1
DILUPBiCGStab:  Solving for k, Initial residual = 3.823369525e-06, Final residual = 7.673420158e-10, No Iterations 1
ExecutionTime = 5.34 s  ClockTime = 5 s

Courant Number mean: 0.001974773178 max: 0.1785680658
deltaT = 1.282356124e-05
Time = 7.099695289e-05

diagonal:  Solving for rho, Initial residual = 0, Final residual = 0, No Iterations 0
DILUPBiCGStab:  Solving for Ux, Initial residual = 0.005768417856, Final residual = 2.544247594e-06, No Iterations 1
DILUPBiCGStab:  Solving for Uy, Initial residual = 0.0003048917708, Final residual = 4.245411941e-08, No Iterations 1
DILUPBiCGStab:  Solving for Uz, Initial residual = 9.41199258e-06, Final residual = 4.411175725e-09, No Iterations 1
DILUPBiCGStab:  Solving for H2, Initial residual = 0.0001210257728, Final residual = 3.840357788e-08, No Iterations 1
DILUPBiCGStab:  Solving for H, Initial residual = 7.925083925e-05, Final residual = 5.706554743e-09, No Iterations 1
DILUPBiCGStab:  Solving for O, Initial residual = 0.0005088298597, Final residual = 3.022674859e-07, No Iterations 1
DILUPBiCGStab:  Solving for O2, Initial residual = 3.138719298e-06, Final residual = 1.43204724e-09, No Iterations 1
DILUPBiCGStab:  Solving for OH, Initial residual = 0.00123430317, Final residual = 8.202887097e-07, No Iterations 1
DILUPBiCGStab:  Solving for H2O, Initial residual = 1.879463787e-05, Final residual = 1.025895973e-08, No Iterations 1
DILUPBiCGStab:  Solving for HO2, Initial residual = 0.003705090606, Final residual = 3.581909409e-06, No Iterations 1
DILUPBiCGStab:  Solving for H2O2, Initial residual = 0.006227437945, Final residual = 4.969778646e-06, No Iterations 1
DILUPBiCGStab:  Solving for C, Initial residual = 0.001260576798, Final residual = 2.065136525e-07, No Iterations 1
DILUPBiCGStab:  Solving for CH, Initial residual = 0.001170511864, Final residual = 1.880920505e-07, No Iterations 1
DILUPBiCGStab:  Solving for CH2, Initial residual = 0.004748229797, Final residual = 2.321719259e-06, No Iterations 1
DILUPBiCGStab:  Solving for CH2(S), Initial residual = 0.004115757286, Final residual = 1.798949122e-06, No Iterations 1
DILUPBiCGStab:  Solving for CH3, Initial residual = 0.001015230049, Final residual = 6.127157167e-07, No Iterations 1
DILUPBiCGStab:  Solving for CH4, Initial residual = 2.402707789e-06, Final residual = 1.027296576e-09, No Iterations 1
DILUPBiCGStab:  Solving for CO, Initial residual = 0.0001055332373, Final residual = 3.682524861e-08, No Iterations 1
DILUPBiCGStab:  Solving for CO2, Initial residual = 3.738097094e-06, Final residual = 8.836970524e-10, No Iterations 1
DILUPBiCGStab:  Solving for HCO, Initial residual = 0.0007903462306, Final residual = 3.370388563e-07, No Iterations 1
DILUPBiCGStab:  Solving for CH2O, Initial residual = 0.001818312546, Final residual = 1.099961791e-06, No Iterations 1
[...]
DILUPBiCGStab:  Solving for C2H, Initial residual = 0.0001473816675, Final residual = 7.655693517e-07, No Iterations 1
DILUPBiCGStab:  Solving for C2H2, Initial residual = 4.825866424e-05, Final residual = 2.996771755e-07, No Iterations 1
DILUPBiCGStab:  Solving for C2H3, Initial residual = 0.0002228706204, Final residual = 1.270811028e-06, No Iterations 1
DILUPBiCGStab:  Solving for C2H4, Initial residual = 4.434394659e-05, Final residual = 2.302474198e-07, No Iterations 1
DILUPBiCGStab:  Solving for C2H5, Initial residual = 0.0001398443851, Final residual = 5.610263527e-07, No Iterations 1
DILUPBiCGStab:  Solving for C2H6, Initial residual = 3.981195481e-05, Final residual = 1.888960681e-07, No Iterations 1
DILUPBiCGStab:  Solving for HCCO, Initial residual = 0.0002089162008, Final residual = 1.198889427e-06, No Iterations 1
DILUPBiCGStab:  Solving for CH2CO, Initial residual = 5.679377784e-05, Final residual = 3.142981847e-07, No Iterations 1
DILUPBiCGStab:  Solving for HCCOH, Initial residual = 5.460388337e-05, Final residual = 3.308739158e-07, No Iterations 1
DILUPBiCGStab:  Solving for AR, Initial residual = 0, Final residual = 0, No Iterations 0
DILUPBiCGStab:  Solving for C3H7, Initial residual = 0.0001690268133, Final residual = 4.632238547e-07, No Iterations 1
DILUPBiCGStab:  Solving for C3H8, Initial residual = 6.29884637e-05, Final residual = 2.877251997e-07, No Iterations 1
DILUPBiCGStab:  Solving for CH2CHO, Initial residual = 0.0004250152189, Final residual = 1.485301207e-06, No Iterations 1
DILUPBiCGStab:  Solving for CH3CHO, Initial residual = 0.0001731042871, Final residual = 6.301011137e-07, No Iterations 1
DILUPBiCGStab:  Solving for h, Initial residual = 2.113045826e-05, Final residual = 7.296052284e-08, No Iterations 1
min/max(T) = 290.998527, 1960.048166
DICPCG:  Solving for p, Initial residual = 0.006275841342, Final residual = 6.263983247e-05, No Iterations 5
diagonal:  Solving for rho, Initial residual = 0, Final residual = 0, No Iterations 0
time step continuity errors : sum local = 1.686924846e-08, global = 2.972875249e-09, cumulative = -4.826834862e-07
DICPCG:  Solving for p, Initial residual = 0.00376028701, Final residual = 6.816397808e-07, No Iterations 12
diagonal:  Solving for rho, Initial residual = 0, Final residual = 0, No Iterations 0
time step continuity errors : sum local = 1.839276114e-10, global = -2.170227264e-11, cumulative = -4.827051884e-07
DILUPBiCGStab:  Solving for epsilon, Initial residual = 1.968681257e-05, Final residual = 7.187758675e-08, No Iterations 1
DILUPBiCGStab:  Solving for k, Initial residual = 1.919283022e-05, Final residual = 8.908974673e-08, No Iterations 1
ExecutionTime = 212.95 s  ClockTime = 215 s

Courant Number mean: 0.008386377705 max: 0.5864389727
deltaT = 4.263788472e-05
Time = 0.02491472423

diagonal:  Solving for rho, Initial residual = 0, Final residual = 0, No Iterations 0
DILUPBiCGStab:  Solving for Ux, Initial residual = 0.001223285997, Final residual = 1.051350783e-06, No Iterations 1
DILUPBiCGStab:  Solving for Uy, Initial residual = 0.0005583133017, Final residual = 1.602567736e-07, No Iterations 1
DILUPBiCGStab:  Solving for Uz, Initial residual = 4.958206433e-05, Final residual = 3.111551086e-08, No Iterations 1
DILUPBiCGStab:  Solving for H2, Initial residual = 3.707557875e-05, Final residual = 1.829045674e-07, No Iterations 1
DILUPBiCGStab:  Solving for H, Initial residual = 8.649978229e-05, Final residual = 3.591084716e-07, No Iterations 1
DILUPBiCGStab:  Solving for O, Initial residual = 8.391856887e-05, Final residual = 2.08125368e-07, No Iterations 1
DILUPBiCGStab:  Solving for O2, Initial residual = 1.7155256e-05, Final residual = 6.023726102e-08, No Iterations 1
DILUPBiCGStab:  Solving for OH, Initial residual = 3.945889132e-05, Final residual = 1.238323996e-07, No Iterations 1
DILUPBiCGStab:  Solving for H2O, Initial residual = 2.185139988e-05, Final residual = 7.625038824e-08, No Iterations 1
DILUPBiCGStab:  Solving for HO2, Initial residual = 0.0002030414037, Final residual = 4.515314844e-07, No Iterations 1
DILUPBiCGStab:  Solving for H2O2, Initial residual = 4.800700263e-05, Final residual = 9.859549405e-08, No Iterations 1
DILUPBiCGStab:  Solving for C, Initial residual = 0.0003691860038, Final residual = 2.131281713e-06, No Iterations 1
DILUPBiCGStab:  Solving for CH, Initial residual = 0.0002718607675, Final residual = 1.548945085e-06, No Iterations 1
DILUPBiCGStab:  Solving for CH2, Initial residual = 0.0001041449748, Final residual = 5.507880621e-07, No Iterations 1
DILUPBiCGStab:  Solving for CH2(S), Initial residual = 0.0001431059702, Final residual = 7.630753992e-07, No Iterations 1
DILUPBiCGStab:  Solving for CH3, Initial residual = 6.076664373e-05, Final residual = 2.31828491e-07, No Iterations 1
DILUPBiCGStab:  Solving for CH4, Initial residual = 4.525782474e-06, Final residual = 1.396475888e-08, No Iterations 1
DILUPBiCGStab:  Solving for CO, Initial residual = 4.124994823e-05, Final residual = 1.863045715e-07, No Iterations 1
DILUPBiCGStab:  Solving for CO2, Initial residual = 1.931139004e-05, Final residual = 6.255347058e-08, No Iterations 1
DILUPBiCGStab:  Solving for HCO, Initial residual = 0.0002591522899, Final residual = 1.12558418e-06, No Iterations 1
DILUPBiCGStab:  Solving for CH2O, Initial residual = 6.682973186e-05, Final residual = 2.643444865e-07, No Iterations 1
DILUPBiCGStab:  Solving for CH2OH, Initial residual = 0.0001465766619, Final residual = 7.496863089e-07, No Iterations 1
DILUPBiCGStab:  Solving for CH3O, Initial residual = 0.000254207479, Final residual = 4.53941568e-07, No Iterations 1
DILUPBiCGStab:  Solving for CH3OH, Initial residual = 4.616434376e-05, Final residual = 1.420718735e-07, No Iterations 1
DILUPBiCGStab:  Solving for C2H, Initial residual = 9.625602207e-05, Final residual = 5.577093195e-07, No Iterations 1
DILUPBiCGStab:  Solving for C2H2, Initial residual = 3.784495516e-05, Final residual = 2.226769409e-07, No Iterations 1
DILUPBiCGStab:  Solving for C2H3, Initial residual = 8.585976022e-05, Final residual = 4.113798318e-07, No Iterations 1
DILUPBiCGStab:  Solving for C2H4, Initial residual = 4.049009878e-05, Final residual = 1.997137807e-07, No Iterations 1
DILUPBiCGStab:  Solving for C2H5, Initial residual = 0.0001271732649, Final residual = 4.869315638e-07, No Iterations 1
DILUPBiCGStab:  Solving for C2H6, Initial residual = 3.924822424e-05, Final residual = 1.950719484e-07, No Iterations 1
DILUPBiCGStab:  Solving for HCCO, Initial residual = 9.548038577e-05, Final residual = 4.99222531e-07, No Iterations 1
DILUPBiCGStab:  Solving for CH2CO, Initial residual = 4.824393675e-05, Final residual = 2.43084729e-07, No Iterations 1
DILUPBiCGStab:  Solving for HCCOH, Initial residual = 3.755805946e-05, Final residual = 2.314455345e-07, No Iterations 1
DILUPBiCGStab:  Solving for AR, Initial residual = 0, Final residual = 0, No Iterations 0
DILUPBiCGStab:  Solving for C3H7, Initial residual = 0.0001636317518, Final residual = 4.546070164e-07, No Iterations 1
DILUPBiCGStab:  Solving for C3H8, Initial residual = 6.161235178e-05, Final residual = 2.821465416e-07, No Iterations 1
DILUPBiCGStab:  Solving for CH2CHO, Initial residual = 0.0003922868505, Final residual = 1.088534116e-06, No Iterations 1
DILUPBiCGStab:  Solving for CH3CHO, Initial residual = 0.0001741808358, Final residual = 5.930204544e-07, No Iterations 1
DILUPBiCGStab:  Solving for h, Initial residual = 2.107465923e-05, Final residual = 7.155136075e-08, No Iterations 1
min/max(T) = 290.9984034, 1960.051596
DICPCG:  Solving for p, Initial residual = 0.006226875164, Final residual = 3.367893297e-05, No Iterations 6
diagonal:  Solving for rho, Initial residual = 0, Final residual = 0, No Iterations 0
time step continuity errors : sum local = 9.086453716e-09, global = 6.905565929e-11, cumulative = -4.826361328e-07
DICPCG:  Solving for p, Initial residual = 0.003733579193, Final residual = 8.906266328e-07, No Iterations 12
diagonal:  Solving for rho, Initial residual = 0, Final residual = 0, No Iterations 0
time step continuity errors : sum local = 2.401133607e-10, global = -7.499783568e-12, cumulative = -4.826436325e-07
DILUPBiCGStab:  Solving for epsilon, Initial residual = 1.960984551e-05, Final residual = 7.236994109e-08, No Iterations 1
DILUPBiCGStab:  Solving for k, Initial residual = 1.916934489e-05, Final residual = 9.017219101e-08, No Iterations 1
ExecutionTime = 213.36 s  ClockTime = 216 s

Courant Number mean: 0.008386344193 max: 0.5864651788
deltaT = 4.263788472e-05
Time = 0.02495736212

diagonal:  Solving for rho, Initial residual = 0, Final residual = 0, No Iterations 0
DILUPBiCGStab:  Solving for Ux, Initial residual = 0.001212668444, Final residual = 1.082027913e-06, No Iterations 1
DILUPBiCGStab:  Solving for Uy, Initial residual = 0.000555648474, Final residual = 1.675566982e-07, No Iterations 1
DILUPBiCGStab:  Solving for Uz, Initial residual = 4.966190025e-05, Final residual = 3.183242802e-08, No Iterations 1
DILUPBiCGStab:  Solving for H2, Initial residual = 3.809400991e-05, Final residual = 1.862395821e-07, No Iterations 1
DILUPBiCGStab:  Solving for H, Initial residual = 6.110994534e-05, Final residual = 1.927050568e-07, No Iterations 1
DILUPBiCGStab:  Solving for O, Initial residual = 9.279918767e-05, Final residual = 2.14349658e-07, No Iterations 1
DILUPBiCGStab:  Solving for O2, Initial residual = 1.689390184e-05, Final residual = 5.903156007e-08, No Iterations 1
DILUPBiCGStab:  Solving for OH, Initial residual = 3.453696221e-05, Final residual = 8.317413535e-08, No Iterations 1
DILUPBiCGStab:  Solving for H2O, Initial residual = 2.150633045e-05, Final residual = 7.517684505e-08, No Iterations 1
DILUPBiCGStab:  Solving for HO2, Initial residual = 0.0002055714261, Final residual = 4.453297474e-07, No Iterations 1
DILUPBiCGStab:  Solving for H2O2, Initial residual = 4.71410082e-05, Final residual = 9.862605242e-08, No Iterations 1
DILUPBiCGStab:  Solving for C, Initial residual = 0.0001777843425, Final residual = 9.5845257e-07, No Iterations 1
DILUPBiCGStab:  Solving for CH, Initial residual = 0.0001521227498, Final residual = 8.259021413e-07, No Iterations 1
DILUPBiCGStab:  Solving for CH2, Initial residual = 7.041284752e-05, Final residual = 3.157353253e-07, No Iterations 1
DILUPBiCGStab:  Solving for CH2(S), Initial residual = 9.421440842e-05, Final residual = 4.221305587e-07, No Iterations 1
DILUPBiCGStab:  Solving for CH3, Initial residual = 5.739447871e-05, Final residual = 2.493726212e-07, No Iterations 1
DILUPBiCGStab:  Solving for CH4, Initial residual = 4.479210068e-06, Final residual = 1.4000143e-08, No Iterations 1
DILUPBiCGStab:  Solving for CO, Initial residual = 4.106640857e-05, Final residual = 1.850047754e-07, No Iterations 1
DILUPBiCGStab:  Solving for CO2, Initial residual = 1.918433732e-05, Final residual = 6.023871889e-08, No Iterations 1
DILUPBiCGStab:  Solving for HCO, Initial residual = 0.0002658125144, Final residual = 8.321589928e-07, No Iterations 1
DILUPBiCGStab:  Solving for CH2O, Initial residual = 6.240999651e-05, Final residual = 2.501152655e-07, No Iterations 1
DILUPBiCGStab:  Solving for CH2OH, Initial residual = 0.0001103346698, Final residual = 4.379466208e-07, No Iterations 1
DILUPBiCGStab:  Solving for CH3O, Initial residual = 0.000265756051, Final residual = 4.36269605e-07, No Iterations 1
DILUPBiCGStab:  Solving for CH3OH, Initial residual = 4.264152411e-05, Final residual = 1.350165683e-07, No Iterations 1
DILUPBiCGStab:  Solving for C2H, Initial residual = 5.624001844e-05, Final residual = 3.1415976e-07, No Iterations 1
DILUPBiCGStab:  Solving for C2H2, Initial residual = 3.568787402e-05, Final residual = 2.055613946e-07, No Iterations 1
DILUPBiCGStab:  Solving for C2H3, Initial residual = 6.398884962e-05, Final residual = 3.013823017e-07, No Iterations 1
DILUPBiCGStab:  Solving for C2H4, Initial residual = 3.911850936e-05, Final residual = 2.033717919e-07, No Iterations 1
DILUPBiCGStab:  Solving for C2H5, Initial residual = 0.0001095532119, Final residual = 4.307410398e-07, No Iterations 1
DILUPBiCGStab:  Solving for C2H6, Initial residual = 3.95001425e-05, Final residual = 2.062761577e-07, No Iterations 1
DILUPBiCGStab:  Solving for HCCO, Initial residual = 5.169721734e-05, Final residual = 2.497097885e-07, No Iterations 1
DILUPBiCGStab:  Solving for CH2CO, Initial residual = 4.298274751e-05, Final residual = 2.096426508e-07, No Iterations 1
DILUPBiCGStab:  Solving for HCCOH, Initial residual = 3.070224821e-05, Final residual = 1.813446857e-07, No Iterations 1
DILUPBiCGStab:  Solving for AR, Initial residual = 0, Final residual = 0, No Iterations 0
DILUPBiCGStab:  Solving for C3H7, Initial residual = 0.0001629452303, Final residual = 4.555309996e-07, No Iterations 1
DILUPBiCGStab:  Solving for C3H8, Initial residual = 6.231722888e-05, Final residual = 2.923695944e-07, No Iterations 1
DILUPBiCGStab:  Solving for CH2CHO, Initial residual = 0.0003744785658, Final residual = 9.575246917e-07, No Iterations 1
DILUPBiCGStab:  Solving for CH3CHO, Initial residual = 0.0001459882128, Final residual = 5.339887678e-07, No Iterations 1
DILUPBiCGStab:  Solving for h, Initial residual = 2.084908139e-05, Final residual = 7.042972708e-08, No Iterations 1
min/max(T) = 290.9983098, 1960.05778
DICPCG:  Solving for p, Initial residual = 0.006359331706, Final residual = 3.91364265e-05, No Iterations 6
diagonal:  Solving for rho, Initial residual = 0, Final residual = 0, No Iterations 0
time step continuity errors : sum local = 1.054915024e-08, global = 8.684948934e-10, cumulative = -4.817751377e-07
DICPCG:  Solving for p, Initial residual = 0.003826824244, Final residual = 9.068539439e-07, No Iterations 12
diagonal:  Solving for rho, Initial residual = 0, Final residual = 0, No Iterations 0
time step continuity errors : sum local = 2.436812095e-10, global = 4.228462342e-12, cumulative = -4.817709092e-07
DILUPBiCGStab:  Solving for epsilon, Initial residual = 1.968970702e-05, Final residual = 7.336338008e-08, No Iterations 1
DILUPBiCGStab:  Solving for k, Initial residual = 1.918993915e-05, Final residual = 9.126543282e-08, No Iterations 1
ExecutionTime = 213.8 s  ClockTime = 216 s

Courant Number mean: 0.008386500507 max: 0.5880185591
deltaT = 4.263788472e-05
Time = 0.025

diagonal:  Solving for rho, Initial residual = 0, Final residual = 0, No Iterations 0
DILUPBiCGStab:  Solving for Ux, Initial residual = 0.001173349375, Final residual = 1.002352092e-06, No Iterations 1
DILUPBiCGStab:  Solving for Uy, Initial residual = 0.0005627300518, Final residual = 1.680785817e-07, No Iterations 1
DILUPBiCGStab:  Solving for Uz, Initial residual = 4.938519274e-05, Final residual = 3.218715007e-08, No Iterations 1
DILUPBiCGStab:  Solving for H2, Initial residual = 3.647383065e-05, Final residual = 1.891809754e-07, No Iterations 1
DILUPBiCGStab:  Solving for H, Initial residual = 4.221009879e-05, Final residual = 1.372746243e-07, No Iterations 1
DILUPBiCGStab:  Solving for O, Initial residual = 6.114985574e-05, Final residual = 1.303816186e-07, No Iterations 1
DILUPBiCGStab:  Solving for O2, Initial residual = 1.657186239e-05, Final residual = 5.783244246e-08, No Iterations 1
DILUPBiCGStab:  Solving for OH, Initial residual = 2.597467114e-05, Final residual = 5.749971847e-08, No Iterations 1
DILUPBiCGStab:  Solving for H2O, Initial residual = 2.111105358e-05, Final residual = 7.37006299e-08, No Iterations 1
DILUPBiCGStab:  Solving for HO2, Initial residual = 0.0001905898646, Final residual = 4.14749186e-07, No Iterations 1
DILUPBiCGStab:  Solving for H2O2, Initial residual = 4.675634415e-05, Final residual = 9.965217522e-08, No Iterations 1
DILUPBiCGStab:  Solving for C, Initial residual = 0.0001242337345, Final residual = 6.496253941e-07, No Iterations 1
DILUPBiCGStab:  Solving for CH, Initial residual = 0.0001084169858, Final residual = 5.612201034e-07, No Iterations 1
DILUPBiCGStab:  Solving for CH2, Initial residual = 3.348834059e-05, Final residual = 1.383379818e-07, No Iterations 1
DILUPBiCGStab:  Solving for CH2(S), Initial residual = 5.122593146e-05, Final residual = 2.201609283e-07, No Iterations 1
DILUPBiCGStab:  Solving for CH3, Initial residual = 5.021737354e-05, Final residual = 2.43535061e-07, No Iterations 1
DILUPBiCGStab:  Solving for CH4, Initial residual = 4.439644151e-06, Final residual = 1.404204257e-08, No Iterations 1
DILUPBiCGStab:  Solving for CO, Initial residual = 4.202664329e-05, Final residual = 1.866134999e-07, No Iterations 1
DILUPBiCGStab:  Solving for CO2, Initial residual = 1.890987044e-05, Final residual = 5.849665904e-08, No Iterations 1
DILUPBiCGStab:  Solving for HCO, Initial residual = 0.0001475027691, Final residual = 4.438954494e-07, No Iterations 1
DILUPBiCGStab:  Solving for CH2O, Initial residual = 5.804008125e-05, Final residual = 2.473898955e-07, No Iterations 1
DILUPBiCGStab:  Solving for CH2OH, Initial residual = 5.122281649e-05, Final residual = 1.797385552e-07, No Iterations 1
DILUPBiCGStab:  Solving for CH3O, Initial residual = 0.0002674151407, Final residual = 4.240084359e-07, No Iterations 1
DILUPBiCGStab:  Solving for CH3OH, Initial residual = 4.099444924e-05, Final residual = 1.333507678e-07, No Iterations 1
DILUPBiCGStab:  Solving for C2H, Initial residual = 4.007542191e-05, Final residual = 2.085558702e-07, No Iterations 1
DILUPBiCGStab:  Solving for C2H2, Initial residual = 3.512113441e-05, Final residual = 2.036804688e-07, No Iterations 1
DILUPBiCGStab:  Solving for C2H3, Initial residual = 4.084663372e-05, Final residual = 2.116463065e-07, No Iterations 1
DILUPBiCGStab:  Solving for C2H4, Initial residual = 3.943745041e-05, Final residual = 2.086260008e-07, No Iterations 1
DILUPBiCGStab:  Solving for C2H5, Initial residual = 0.0001137517203, Final residual = 5.039447891e-07, No Iterations 1
DILUPBiCGStab:  Solving for C2H6, Initial residual = 3.999855141e-05, Final residual = 2.112467626e-07, No Iterations 1
DILUPBiCGStab:  Solving for HCCO, Initial residual = 2.757170646e-05, Final residual = 1.295421835e-07, No Iterations 1
DILUPBiCGStab:  Solving for CH2CO, Initial residual = 3.965984788e-05, Final residual = 2.011327821e-07, No Iterations 1
DILUPBiCGStab:  Solving for HCCOH, Initial residual = 2.826268214e-05, Final residual = 1.679041785e-07, No Iterations 1
DILUPBiCGStab:  Solving for AR, Initial residual = 0, Final residual = 0, No Iterations 0
DILUPBiCGStab:  Solving for C3H7, Initial residual = 0.0001619136383, Final residual = 4.488360925e-07, No Iterations 1
DILUPBiCGStab:  Solving for C3H8, Initial residual = 6.335607908e-05, Final residual = 3.012536805e-07, No Iterations 1
DILUPBiCGStab:  Solving for CH2CHO, Initial residual = 0.0003429027276, Final residual = 8.296701266e-07, No Iterations 1
DILUPBiCGStab:  Solving for CH3CHO, Initial residual = 0.0001220807595, Final residual = 4.520326847e-07, No Iterations 1
DILUPBiCGStab:  Solving for h, Initial residual = 2.057851111e-05, Final residual = 6.925621766e-08, No Iterations 1
min/max(T) = 290.9982534, 1960.060644
DICPCG:  Solving for p, Initial residual = 0.006433243042, Final residual = 3.528461786e-05, No Iterations 6
diagonal:  Solving for rho, Initial residual = 0, Final residual = 0, No Iterations 0
time step continuity errors : sum local = 9.482705893e-09, global = 1.441402536e-09, cumulative = -4.803295067e-07
DICPCG:  Solving for p, Initial residual = 0.003874372856, Final residual = 7.887138619e-07, No Iterations 12
diagonal:  Solving for rho, Initial residual = 0, Final residual = 0, No Iterations 0
time step continuity errors : sum local = 2.109298442e-10, global = 1.78128473e-11, cumulative = -4.803116938e-07
DILUPBiCGStab:  Solving for epsilon, Initial residual = 1.963198858e-05, Final residual = 7.413575158e-08, No Iterations 1
DILUPBiCGStab:  Solving for k, Initial residual = 1.917685009e-05, Final residual = 9.228674308e-08, No Iterations 1
ExecutionTime = 214.43 s  ClockTime = 217 s

End

Finalising parallel run
